version 2
run No_Obstacles_Night-0-20191117-11:07:56-4847
attr configname No_Obstacles_Night
attr datetime 20191117-11:07:56
attr experiment No_Obstacles_Night
attr inifile omnetpp.ini
attr iterationvars $0=0
attr iterationvarsf 0-
attr measurement $0=0
attr network artery.veins.World
attr processid 4847
attr repetition 0
attr replication #0
attr resultdir results
attr runnumber 0
attr seedset 0
param *.traci.launcher.sumocfg "\"No_Obstacles_Night/run.sumo.cfg\""
param *.node[*].nic.mac1609_4.txPower 20mW
param *.node[*].nic.phy80211p.decider "xmldoc(\"config.xml\")"
param *.node[*].nic.phy80211p.analogueModels "xmldoc(\"config.xml\")"
param *.node[*].applType "\"artery.veins.ApplicationLayer\""
param *.node[*].appl.middleware.updateInterval 0.1s
param *.node[*].appl.middleware.datetime "\"2013-06-01 12:35:00\""
param *.node[*].appl.middleware.services "xmldoc(\"services.xml\")"
param *.node[*].appl.middleware.ExampleService.DecisionLogic 0
param *.node[*].appl.middleware.ExampleService.NeighboringWindow 60
param *.traci.core.version -1
param *.traci.launcher.typename "\"PosixLauncher\""
param *.playgroundSizeX 4000m
param *.playgroundSizeY 4000m
param *.playgroundSizeZ 50m
param *.connectionManager.maxInterfDist 1500m
param *.connectionManager.sendDirect true
param *.connectionManager.coreDebug false

scalar World.node[5].appl.middleware.CaService #cam_sent 158
scalar World.node[5].appl.middleware.ExampleService #full_proofs 0
scalar World.node[5].appl.middleware.ExampleService #half_proofs 0
scalar World.node[5].appl.middleware.ExampleService #failed_proofs 0
scalar World.node[5].appl.middleware.ExampleService #loc_proof_send 3
scalar World.node[5].nic.phy80211p busyTime 0.0028217872340425
scalar World.node[5].nic.mac1609_4 ReceivedUnicastPackets 0
scalar World.node[5].nic.mac1609_4 ReceivedBroadcasts 739
scalar World.node[5].nic.mac1609_4 SentPackets 161
scalar World.node[5].nic.mac1609_4 SentAcknowledgements 0
scalar World.node[5].nic.mac1609_4 SNIRLostPackets 74
scalar World.node[5].nic.mac1609_4 RXTXLostPackets 13
scalar World.node[5].nic.mac1609_4 TotalLostPackets 87
scalar World.node[5].nic.mac1609_4 DroppedPacketsInMac 0
scalar World.node[5].nic.mac1609_4 TooLittleTime 0
scalar World.node[5].nic.mac1609_4 TimesIntoBackoff 161
scalar World.node[5].nic.mac1609_4 SlotsBackoff 1229
scalar World.node[5].nic.mac1609_4 NumInternalContention 0
scalar World.node[5].nic.mac1609_4 totalBusyTime 0.158681
scalar World.node[3].appl.middleware.CaService #cam_sent 310
scalar World.node[3].appl.middleware.ExampleService #full_proofs 0
scalar World.node[3].appl.middleware.ExampleService #half_proofs 1
scalar World.node[3].appl.middleware.ExampleService #failed_proofs 1
scalar World.node[3].appl.middleware.ExampleService #loc_proof_send 11
scalar World.node[3].nic.phy80211p busyTime 0.002973696
scalar World.node[3].nic.mac1609_4 ReceivedUnicastPackets 0
scalar World.node[3].nic.mac1609_4 ReceivedBroadcasts 2237
scalar World.node[3].nic.mac1609_4 SentPackets 321
scalar World.node[3].nic.mac1609_4 SentAcknowledgements 0
scalar World.node[3].nic.mac1609_4 SNIRLostPackets 59
scalar World.node[3].nic.mac1609_4 RXTXLostPackets 19
scalar World.node[3].nic.mac1609_4 TotalLostPackets 78
scalar World.node[3].nic.mac1609_4 DroppedPacketsInMac 0
scalar World.node[3].nic.mac1609_4 TooLittleTime 0
scalar World.node[3].nic.mac1609_4 TimesIntoBackoff 322
scalar World.node[3].nic.mac1609_4 SlotsBackoff 2350
scalar World.node[3].nic.mac1609_4 NumInternalContention 0
scalar World.node[3].nic.mac1609_4 totalBusyTime 0.421521
scalar World.node[4].appl.middleware.CaService #cam_sent 355
scalar World.node[4].appl.middleware.ExampleService #full_proofs 0
scalar World.node[4].appl.middleware.ExampleService #half_proofs 2
scalar World.node[4].appl.middleware.ExampleService #failed_proofs 0
scalar World.node[4].appl.middleware.ExampleService #loc_proof_send 12
scalar World.node[4].nic.phy80211p busyTime 0.0030159310344827
scalar World.node[4].nic.mac1609_4 ReceivedUnicastPackets 0
scalar World.node[4].nic.mac1609_4 ReceivedBroadcasts 1938
scalar World.node[4].nic.mac1609_4 SentPackets 367
scalar World.node[4].nic.mac1609_4 SentAcknowledgements 0
scalar World.node[4].nic.mac1609_4 SNIRLostPackets 224
scalar World.node[4].nic.mac1609_4 RXTXLostPackets 18
scalar World.node[4].nic.mac1609_4 TotalLostPackets 242
scalar World.node[4].nic.mac1609_4 DroppedPacketsInMac 0
scalar World.node[4].nic.mac1609_4 TooLittleTime 0
scalar World.node[4].nic.mac1609_4 TimesIntoBackoff 368
scalar World.node[4].nic.mac1609_4 SlotsBackoff 2807
scalar World.node[4].nic.mac1609_4 NumInternalContention 0
scalar World.node[4].nic.mac1609_4 totalBusyTime 0.407063
scalar World.node[7].appl.middleware.CaService #cam_sent 268
scalar World.node[7].appl.middleware.ExampleService #full_proofs 0
scalar World.node[7].appl.middleware.ExampleService #half_proofs 1
scalar World.node[7].appl.middleware.ExampleService #failed_proofs 0
scalar World.node[7].appl.middleware.ExampleService #loc_proof_send 9
scalar World.node[7].nic.phy80211p busyTime 0.0033715121951219
scalar World.node[7].nic.mac1609_4 ReceivedUnicastPackets 0
scalar World.node[7].nic.mac1609_4 ReceivedBroadcasts 1672
scalar World.node[7].nic.mac1609_4 SentPackets 277
scalar World.node[7].nic.mac1609_4 SentAcknowledgements 0
scalar World.node[7].nic.mac1609_4 SNIRLostPackets 34
scalar World.node[7].nic.mac1609_4 RXTXLostPackets 16
scalar World.node[7].nic.mac1609_4 TotalLostPackets 50
scalar World.node[7].nic.mac1609_4 DroppedPacketsInMac 0
scalar World.node[7].nic.mac1609_4 TooLittleTime 0
scalar World.node[7].nic.mac1609_4 TimesIntoBackoff 282
scalar World.node[7].nic.mac1609_4 SlotsBackoff 2226
scalar World.node[7].nic.mac1609_4 NumInternalContention 0
scalar World.node[7].nic.mac1609_4 totalBusyTime 0.320173
scalar World.node[1].appl.middleware.CaService #cam_sent 547
scalar World.node[1].appl.middleware.ExampleService #full_proofs 2
scalar World.node[1].appl.middleware.ExampleService #half_proofs 1
scalar World.node[1].appl.middleware.ExampleService #failed_proofs 0
scalar World.node[1].appl.middleware.ExampleService #loc_proof_send 19
scalar World.node[1].nic.phy80211p busyTime 0.002580652173913
scalar World.node[1].nic.mac1609_4 ReceivedUnicastPackets 0
scalar World.node[1].nic.mac1609_4 ReceivedBroadcasts 2817
scalar World.node[1].nic.mac1609_4 SentPackets 566
scalar World.node[1].nic.mac1609_4 SentAcknowledgements 0
scalar World.node[1].nic.mac1609_4 SNIRLostPackets 113
scalar World.node[1].nic.mac1609_4 RXTXLostPackets 38
scalar World.node[1].nic.mac1609_4 TotalLostPackets 151
scalar World.node[1].nic.mac1609_4 DroppedPacketsInMac 0
scalar World.node[1].nic.mac1609_4 TooLittleTime 0
scalar World.node[1].nic.mac1609_4 TimesIntoBackoff 568
scalar World.node[1].nic.mac1609_4 SlotsBackoff 4326
scalar World.node[1].nic.mac1609_4 NumInternalContention 0
scalar World.node[1].nic.mac1609_4 totalBusyTime 0.565430003049
scalar World.node[2].appl.middleware.CaService #cam_sent 581
scalar World.node[2].appl.middleware.ExampleService #full_proofs 0
scalar World.node[2].appl.middleware.ExampleService #half_proofs 2
scalar World.node[2].appl.middleware.ExampleService #failed_proofs 1
scalar World.node[2].appl.middleware.ExampleService #loc_proof_send 26
scalar World.node[2].nic.phy80211p busyTime 0.0029317798165137
scalar World.node[2].nic.mac1609_4 ReceivedUnicastPackets 0
scalar World.node[2].nic.mac1609_4 ReceivedBroadcasts 3858
scalar World.node[2].nic.mac1609_4 SentPackets 607
scalar World.node[2].nic.mac1609_4 SentAcknowledgements 0
scalar World.node[2].nic.mac1609_4 SNIRLostPackets 94
scalar World.node[2].nic.mac1609_4 RXTXLostPackets 33
scalar World.node[2].nic.mac1609_4 TotalLostPackets 127
scalar World.node[2].nic.mac1609_4 DroppedPacketsInMac 0
scalar World.node[2].nic.mac1609_4 TooLittleTime 0
scalar World.node[2].nic.mac1609_4 TimesIntoBackoff 608
scalar World.node[2].nic.mac1609_4 SlotsBackoff 4527
scalar World.node[2].nic.mac1609_4 NumInternalContention 0
scalar World.node[2].nic.mac1609_4 totalBusyTime 0.73348711754
scalar World.node[6].appl.middleware.CaService #cam_sent 419
scalar World.node[6].appl.middleware.ExampleService #full_proofs 0
scalar World.node[6].appl.middleware.ExampleService #half_proofs 2
scalar World.node[6].appl.middleware.ExampleService #failed_proofs 0
scalar World.node[6].appl.middleware.ExampleService #loc_proof_send 20
scalar World.node[6].nic.phy80211p busyTime 0.0033604597701149
scalar World.node[6].nic.mac1609_4 ReceivedUnicastPackets 0
scalar World.node[6].nic.mac1609_4 ReceivedBroadcasts 2781
scalar World.node[6].nic.mac1609_4 SentPackets 439
scalar World.node[6].nic.mac1609_4 SentAcknowledgements 0
scalar World.node[6].nic.mac1609_4 SNIRLostPackets 839
scalar World.node[6].nic.mac1609_4 RXTXLostPackets 46
scalar World.node[6].nic.mac1609_4 TotalLostPackets 885
scalar World.node[6].nic.mac1609_4 DroppedPacketsInMac 0
scalar World.node[6].nic.mac1609_4 TooLittleTime 0
scalar World.node[6].nic.mac1609_4 TimesIntoBackoff 440
scalar World.node[6].nic.mac1609_4 SlotsBackoff 3243
scalar World.node[6].nic.mac1609_4 NumInternalContention 0
scalar World.node[6].nic.mac1609_4 totalBusyTime 0.652503097033
scalar World.node[0].appl.middleware.CaService #cam_sent 632
scalar World.node[0].appl.middleware.ExampleService #full_proofs 2
scalar World.node[0].appl.middleware.ExampleService #half_proofs 2
scalar World.node[0].appl.middleware.ExampleService #failed_proofs 0
scalar World.node[0].appl.middleware.ExampleService #loc_proof_send 25
scalar World.node[0].nic.phy80211p busyTime 0.0027548685258964
scalar World.node[0].nic.mac1609_4 ReceivedUnicastPackets 0
scalar World.node[0].nic.mac1609_4 ReceivedBroadcasts 3418
scalar World.node[0].nic.mac1609_4 SentPackets 657
scalar World.node[0].nic.mac1609_4 SentAcknowledgements 0
scalar World.node[0].nic.mac1609_4 SNIRLostPackets 858
scalar World.node[0].nic.mac1609_4 RXTXLostPackets 38
scalar World.node[0].nic.mac1609_4 TotalLostPackets 896
scalar World.node[0].nic.mac1609_4 DroppedPacketsInMac 0
scalar World.node[0].nic.mac1609_4 TooLittleTime 0
scalar World.node[0].nic.mac1609_4 TimesIntoBackoff 659
scalar World.node[0].nic.mac1609_4 SlotsBackoff 5025
scalar World.node[0].nic.mac1609_4 NumInternalContention 0
scalar World.node[0].nic.mac1609_4 totalBusyTime 0.79379307813
scalar World.node[13].appl.middleware.CaService #cam_sent 164
scalar World.node[13].appl.middleware.ExampleService #full_proofs 0
scalar World.node[13].appl.middleware.ExampleService #half_proofs 1
scalar World.node[13].appl.middleware.ExampleService #failed_proofs 0
scalar World.node[13].appl.middleware.ExampleService #loc_proof_send 6
scalar World.node[13].nic.phy80211p busyTime 0.0035980408163265
scalar World.node[13].nic.mac1609_4 ReceivedUnicastPackets 0
scalar World.node[13].nic.mac1609_4 ReceivedBroadcasts 830
scalar World.node[13].nic.mac1609_4 SentPackets 170
scalar World.node[13].nic.mac1609_4 SentAcknowledgements 0
scalar World.node[13].nic.mac1609_4 SNIRLostPackets 264
scalar World.node[13].nic.mac1609_4 RXTXLostPackets 6
scalar World.node[13].nic.mac1609_4 TotalLostPackets 270
scalar World.node[13].nic.mac1609_4 DroppedPacketsInMac 0
scalar World.node[13].nic.mac1609_4 TooLittleTime 0
scalar World.node[13].nic.mac1609_4 TimesIntoBackoff 174
scalar World.node[13].nic.mac1609_4 SlotsBackoff 1186
scalar World.node[13].nic.mac1609_4 NumInternalContention 0
scalar World.node[13].nic.mac1609_4 totalBusyTime 0.201834
scalar World.node[14].appl.middleware.CaService #cam_sent 168
scalar World.node[14].appl.middleware.ExampleService #full_proofs 0
scalar World.node[14].appl.middleware.ExampleService #half_proofs 1
scalar World.node[14].appl.middleware.ExampleService #failed_proofs 0
scalar World.node[14].appl.middleware.ExampleService #loc_proof_send 7
scalar World.node[14].nic.phy80211p busyTime 0.00364448
scalar World.node[14].nic.mac1609_4 ReceivedUnicastPackets 0
scalar World.node[14].nic.mac1609_4 ReceivedBroadcasts 859
scalar World.node[14].nic.mac1609_4 SentPackets 175
scalar World.node[14].nic.mac1609_4 SentAcknowledgements 0
scalar World.node[14].nic.mac1609_4 SNIRLostPackets 273
scalar World.node[14].nic.mac1609_4 RXTXLostPackets 19
scalar World.node[14].nic.mac1609_4 TotalLostPackets 292
scalar World.node[14].nic.mac1609_4 DroppedPacketsInMac 0
scalar World.node[14].nic.mac1609_4 TooLittleTime 0
scalar World.node[14].nic.mac1609_4 TimesIntoBackoff 176
scalar World.node[14].nic.mac1609_4 SlotsBackoff 1347
scalar World.node[14].nic.mac1609_4 NumInternalContention 0
scalar World.node[14].nic.mac1609_4 totalBusyTime 0.208727
scalar World.node[8].appl.middleware.CaService #cam_sent 482
scalar World.node[8].appl.middleware.ExampleService #full_proofs 0
scalar World.node[8].appl.middleware.ExampleService #half_proofs 3
scalar World.node[8].appl.middleware.ExampleService #failed_proofs 0
scalar World.node[8].appl.middleware.ExampleService #loc_proof_send 26
scalar World.node[8].nic.phy80211p busyTime 0.0034503687150838
scalar World.node[8].nic.mac1609_4 ReceivedUnicastPackets 0
scalar World.node[8].nic.mac1609_4 ReceivedBroadcasts 3220
scalar World.node[8].nic.mac1609_4 SentPackets 508
scalar World.node[8].nic.mac1609_4 SentAcknowledgements 0
scalar World.node[8].nic.mac1609_4 SNIRLostPackets 600
scalar World.node[8].nic.mac1609_4 RXTXLostPackets 59
scalar World.node[8].nic.mac1609_4 TotalLostPackets 659
scalar World.node[8].nic.mac1609_4 DroppedPacketsInMac 0
scalar World.node[8].nic.mac1609_4 TooLittleTime 0
scalar World.node[8].nic.mac1609_4 TimesIntoBackoff 508
scalar World.node[8].nic.mac1609_4 SlotsBackoff 3843
scalar World.node[8].nic.mac1609_4 NumInternalContention 0
scalar World.node[8].nic.mac1609_4 totalBusyTime 0.695292336131
scalar World.node[17].appl.middleware.CaService #cam_sent 118
scalar World.node[17].appl.middleware.ExampleService #full_proofs 0
scalar World.node[17].appl.middleware.ExampleService #half_proofs 1
scalar World.node[17].appl.middleware.ExampleService #failed_proofs 0
scalar World.node[17].appl.middleware.ExampleService #loc_proof_send 5
scalar World.node[17].nic.phy80211p busyTime 0.0037428571428571
scalar World.node[17].nic.mac1609_4 ReceivedUnicastPackets 0
scalar World.node[17].nic.mac1609_4 ReceivedBroadcasts 890
scalar World.node[17].nic.mac1609_4 SentPackets 123
scalar World.node[17].nic.mac1609_4 SentAcknowledgements 0
scalar World.node[17].nic.mac1609_4 SNIRLostPackets 84
scalar World.node[17].nic.mac1609_4 RXTXLostPackets 12
scalar World.node[17].nic.mac1609_4 TotalLostPackets 96
scalar World.node[17].nic.mac1609_4 DroppedPacketsInMac 0
scalar World.node[17].nic.mac1609_4 TooLittleTime 0
scalar World.node[17].nic.mac1609_4 TimesIntoBackoff 124
scalar World.node[17].nic.mac1609_4 SlotsBackoff 838
scalar World.node[17].nic.mac1609_4 NumInternalContention 0
scalar World.node[17].nic.mac1609_4 totalBusyTime 0.175219
scalar World.node[10].appl.middleware.CaService #cam_sent 483
scalar World.node[10].appl.middleware.ExampleService #full_proofs 0
scalar World.node[10].appl.middleware.ExampleService #half_proofs 3
scalar World.node[10].appl.middleware.ExampleService #failed_proofs 0
scalar World.node[10].appl.middleware.ExampleService #loc_proof_send 23
scalar World.node[10].nic.phy80211p busyTime 0.0033098765432098
scalar World.node[10].nic.mac1609_4 ReceivedUnicastPackets 0
scalar World.node[10].nic.mac1609_4 ReceivedBroadcasts 2961
scalar World.node[10].nic.mac1609_4 SentPackets 506
scalar World.node[10].nic.mac1609_4 SentAcknowledgements 0
scalar World.node[10].nic.mac1609_4 SNIRLostPackets 358
scalar World.node[10].nic.mac1609_4 RXTXLostPackets 43
scalar World.node[10].nic.mac1609_4 TotalLostPackets 401
scalar World.node[10].nic.mac1609_4 DroppedPacketsInMac 0
scalar World.node[10].nic.mac1609_4 TooLittleTime 0
scalar World.node[10].nic.mac1609_4 TimesIntoBackoff 506
scalar World.node[10].nic.mac1609_4 SlotsBackoff 3923
scalar World.node[10].nic.mac1609_4 NumInternalContention 0
scalar World.node[10].nic.mac1609_4 totalBusyTime 0.612858
scalar World.node[12].appl.middleware.CaService #cam_sent 453
scalar World.node[12].appl.middleware.ExampleService #full_proofs 0
scalar World.node[12].appl.middleware.ExampleService #half_proofs 3
scalar World.node[12].appl.middleware.ExampleService #failed_proofs 0
scalar World.node[12].appl.middleware.ExampleService #loc_proof_send 18
scalar World.node[12].nic.phy80211p busyTime 0.0034585030674846
scalar World.node[12].nic.mac1609_4 ReceivedUnicastPackets 0
scalar World.node[12].nic.mac1609_4 ReceivedBroadcasts 2829
scalar World.node[12].nic.mac1609_4 SentPackets 471
scalar World.node[12].nic.mac1609_4 SentAcknowledgements 0
scalar World.node[12].nic.mac1609_4 SNIRLostPackets 653
scalar World.node[12].nic.mac1609_4 RXTXLostPackets 64
scalar World.node[12].nic.mac1609_4 TotalLostPackets 717
scalar World.node[12].nic.mac1609_4 DroppedPacketsInMac 0
scalar World.node[12].nic.mac1609_4 TooLittleTime 0
scalar World.node[12].nic.mac1609_4 TimesIntoBackoff 475
scalar World.node[12].nic.mac1609_4 SlotsBackoff 3682
scalar World.node[12].nic.mac1609_4 NumInternalContention 0
scalar World.node[12].nic.mac1609_4 totalBusyTime 0.636959
scalar World.node[15].appl.middleware.CaService #cam_sent 394
scalar World.node[15].appl.middleware.ExampleService #full_proofs 0
scalar World.node[15].appl.middleware.ExampleService #half_proofs 2
scalar World.node[15].appl.middleware.ExampleService #failed_proofs 0
scalar World.node[15].appl.middleware.ExampleService #loc_proof_send 15
scalar World.node[15].nic.phy80211p busyTime 0.0033714576271186
scalar World.node[15].nic.mac1609_4 ReceivedUnicastPackets 0
scalar World.node[15].nic.mac1609_4 ReceivedBroadcasts 2154
scalar World.node[15].nic.mac1609_4 SentPackets 409
scalar World.node[15].nic.mac1609_4 SentAcknowledgements 0
scalar World.node[15].nic.mac1609_4 SNIRLostPackets 300
scalar World.node[15].nic.mac1609_4 RXTXLostPackets 38
scalar World.node[15].nic.mac1609_4 TotalLostPackets 338
scalar World.node[15].nic.mac1609_4 DroppedPacketsInMac 0
scalar World.node[15].nic.mac1609_4 TooLittleTime 0
scalar World.node[15].nic.mac1609_4 TimesIntoBackoff 411
scalar World.node[15].nic.mac1609_4 SlotsBackoff 3129
scalar World.node[15].nic.mac1609_4 NumInternalContention 0
scalar World.node[15].nic.mac1609_4 totalBusyTime 0.460225009565
scalar World.node[9].appl.middleware.CaService #cam_sent 711
scalar World.node[9].appl.middleware.ExampleService #full_proofs 0
scalar World.node[9].appl.middleware.ExampleService #half_proofs 2
scalar World.node[9].appl.middleware.ExampleService #failed_proofs 2
scalar World.node[9].appl.middleware.ExampleService #loc_proof_send 35
scalar World.node[9].nic.phy80211p busyTime 0.0035472340425532
scalar World.node[9].nic.mac1609_4 ReceivedUnicastPackets 0
scalar World.node[9].nic.mac1609_4 ReceivedBroadcasts 5449
scalar World.node[9].nic.mac1609_4 SentPackets 746
scalar World.node[9].nic.mac1609_4 SentAcknowledgements 0
scalar World.node[9].nic.mac1609_4 SNIRLostPackets 738
scalar World.node[9].nic.mac1609_4 RXTXLostPackets 87
scalar World.node[9].nic.mac1609_4 TotalLostPackets 825
scalar World.node[9].nic.mac1609_4 DroppedPacketsInMac 0
scalar World.node[9].nic.mac1609_4 TooLittleTime 0
scalar World.node[9].nic.mac1609_4 TimesIntoBackoff 754
scalar World.node[9].nic.mac1609_4 SlotsBackoff 5766
scalar World.node[9].nic.mac1609_4 NumInternalContention 0
scalar World.node[9].nic.mac1609_4 totalBusyTime 1.11331416972
scalar World.node[23].appl.middleware.CaService #cam_sent 102
scalar World.node[23].appl.middleware.ExampleService #full_proofs 0
scalar World.node[23].appl.middleware.ExampleService #half_proofs 1
scalar World.node[23].appl.middleware.ExampleService #failed_proofs 0
scalar World.node[23].appl.middleware.ExampleService #loc_proof_send 3
scalar World.node[23].nic.phy80211p busyTime 0.0044229333333333
scalar World.node[23].nic.mac1609_4 ReceivedUnicastPackets 0
scalar World.node[23].nic.mac1609_4 ReceivedBroadcasts 719
scalar World.node[23].nic.mac1609_4 SentPackets 105
scalar World.node[23].nic.mac1609_4 SentAcknowledgements 0
scalar World.node[23].nic.mac1609_4 SNIRLostPackets 105
scalar World.node[23].nic.mac1609_4 RXTXLostPackets 3
scalar World.node[23].nic.mac1609_4 TotalLostPackets 108
scalar World.node[23].nic.mac1609_4 DroppedPacketsInMac 0
scalar World.node[23].nic.mac1609_4 TooLittleTime 0
scalar World.node[23].nic.mac1609_4 TimesIntoBackoff 105
scalar World.node[23].nic.mac1609_4 SlotsBackoff 755
scalar World.node[23].nic.mac1609_4 NumInternalContention 0
scalar World.node[23].nic.mac1609_4 totalBusyTime 0.146809
scalar World.node[20].appl.middleware.CaService #cam_sent 318
scalar World.node[20].appl.middleware.ExampleService #full_proofs 0
scalar World.node[20].appl.middleware.ExampleService #half_proofs 1
scalar World.node[20].appl.middleware.ExampleService #failed_proofs 0
scalar World.node[20].appl.middleware.ExampleService #loc_proof_send 12
scalar World.node[20].nic.phy80211p busyTime 0.0036748631578947
scalar World.node[20].nic.mac1609_4 ReceivedUnicastPackets 0
scalar World.node[20].nic.mac1609_4 ReceivedBroadcasts 1945
scalar World.node[20].nic.mac1609_4 SentPackets 330
scalar World.node[20].nic.mac1609_4 SentAcknowledgements 0
scalar World.node[20].nic.mac1609_4 SNIRLostPackets 212
scalar World.node[20].nic.mac1609_4 RXTXLostPackets 26
scalar World.node[20].nic.mac1609_4 TotalLostPackets 238
scalar World.node[20].nic.mac1609_4 DroppedPacketsInMac 0
scalar World.node[20].nic.mac1609_4 TooLittleTime 0
scalar World.node[20].nic.mac1609_4 TimesIntoBackoff 334
scalar World.node[20].nic.mac1609_4 SlotsBackoff 2339
scalar World.node[20].nic.mac1609_4 NumInternalContention 0
scalar World.node[20].nic.mac1609_4 totalBusyTime 0.398914
scalar World.node[19].appl.middleware.CaService #cam_sent 382
scalar World.node[19].appl.middleware.ExampleService #full_proofs 0
scalar World.node[19].appl.middleware.ExampleService #half_proofs 2
scalar World.node[19].appl.middleware.ExampleService #failed_proofs 0
scalar World.node[19].appl.middleware.ExampleService #loc_proof_send 17
scalar World.node[19].nic.phy80211p busyTime 0.0036397398373983
scalar World.node[19].nic.mac1609_4 ReceivedUnicastPackets 0
scalar World.node[19].nic.mac1609_4 ReceivedBroadcasts 2575
scalar World.node[19].nic.mac1609_4 SentPackets 399
scalar World.node[19].nic.mac1609_4 SentAcknowledgements 0
scalar World.node[19].nic.mac1609_4 SNIRLostPackets 192
scalar World.node[19].nic.mac1609_4 RXTXLostPackets 41
scalar World.node[19].nic.mac1609_4 TotalLostPackets 233
scalar World.node[19].nic.mac1609_4 DroppedPacketsInMac 0
scalar World.node[19].nic.mac1609_4 TooLittleTime 0
scalar World.node[19].nic.mac1609_4 TimesIntoBackoff 404
scalar World.node[19].nic.mac1609_4 SlotsBackoff 3009
scalar World.node[19].nic.mac1609_4 NumInternalContention 0
scalar World.node[19].nic.mac1609_4 totalBusyTime 0.508679170198
scalar World.node[18].appl.middleware.CaService #cam_sent 514
scalar World.node[18].appl.middleware.ExampleService #full_proofs 1
scalar World.node[18].appl.middleware.ExampleService #half_proofs 2
scalar World.node[18].appl.middleware.ExampleService #failed_proofs 0
scalar World.node[18].appl.middleware.ExampleService #loc_proof_send 21
scalar World.node[18].nic.phy80211p busyTime 0.003489372781065
scalar World.node[18].nic.mac1609_4 ReceivedUnicastPackets 0
scalar World.node[18].nic.mac1609_4 ReceivedBroadcasts 3204
scalar World.node[18].nic.mac1609_4 SentPackets 535
scalar World.node[18].nic.mac1609_4 SentAcknowledgements 0
scalar World.node[18].nic.mac1609_4 SNIRLostPackets 443
scalar World.node[18].nic.mac1609_4 RXTXLostPackets 40
scalar World.node[18].nic.mac1609_4 TotalLostPackets 483
scalar World.node[18].nic.mac1609_4 DroppedPacketsInMac 0
scalar World.node[18].nic.mac1609_4 TooLittleTime 0
scalar World.node[18].nic.mac1609_4 TimesIntoBackoff 535
scalar World.node[18].nic.mac1609_4 SlotsBackoff 4194
scalar World.node[18].nic.mac1609_4 NumInternalContention 0
scalar World.node[18].nic.mac1609_4 totalBusyTime 0.67011114483
scalar World.node[16].appl.middleware.CaService #cam_sent 502
scalar World.node[16].appl.middleware.ExampleService #full_proofs 0
scalar World.node[16].appl.middleware.ExampleService #half_proofs 3
scalar World.node[16].appl.middleware.ExampleService #failed_proofs 1
scalar World.node[16].appl.middleware.ExampleService #loc_proof_send 30
scalar World.node[16].nic.phy80211p busyTime 0.0035591497584541
scalar World.node[16].nic.mac1609_4 ReceivedUnicastPackets 0
scalar World.node[16].nic.mac1609_4 ReceivedBroadcasts 4268
scalar World.node[16].nic.mac1609_4 SentPackets 532
scalar World.node[16].nic.mac1609_4 SentAcknowledgements 0
scalar World.node[16].nic.mac1609_4 SNIRLostPackets 281
scalar World.node[16].nic.mac1609_4 RXTXLostPackets 78
scalar World.node[16].nic.mac1609_4 TotalLostPackets 359
scalar World.node[16].nic.mac1609_4 DroppedPacketsInMac 0
scalar World.node[16].nic.mac1609_4 TooLittleTime 0
scalar World.node[16].nic.mac1609_4 TimesIntoBackoff 536
scalar World.node[16].nic.mac1609_4 SlotsBackoff 4071
scalar World.node[16].nic.mac1609_4 NumInternalContention 0
scalar World.node[16].nic.mac1609_4 totalBusyTime 0.81730007589
scalar World.node[11].appl.middleware.CaService #cam_sent 905
scalar World.node[11].appl.middleware.ExampleService #full_proofs 0
scalar World.node[11].appl.middleware.ExampleService #half_proofs 5
scalar World.node[11].appl.middleware.ExampleService #failed_proofs 1
scalar World.node[11].appl.middleware.ExampleService #loc_proof_send 44
scalar World.node[11].nic.phy80211p busyTime 0.0036101924198249
scalar World.node[11].nic.mac1609_4 ReceivedUnicastPackets 0
scalar World.node[11].nic.mac1609_4 ReceivedBroadcasts 5932
scalar World.node[11].nic.mac1609_4 SentPackets 949
scalar World.node[11].nic.mac1609_4 SentAcknowledgements 0
scalar World.node[11].nic.mac1609_4 SNIRLostPackets 1726
scalar World.node[11].nic.mac1609_4 RXTXLostPackets 115
scalar World.node[11].nic.mac1609_4 TotalLostPackets 1841
scalar World.node[11].nic.mac1609_4 DroppedPacketsInMac 0
scalar World.node[11].nic.mac1609_4 TooLittleTime 0
scalar World.node[11].nic.mac1609_4 TimesIntoBackoff 955
scalar World.node[11].nic.mac1609_4 SlotsBackoff 6911
scalar World.node[11].nic.mac1609_4 NumInternalContention 0
scalar World.node[11].nic.mac1609_4 totalBusyTime 1.381389358874
scalar World.node[26].appl.middleware.CaService #cam_sent 268
scalar World.node[26].appl.middleware.ExampleService #full_proofs 0
scalar World.node[26].appl.middleware.ExampleService #half_proofs 1
scalar World.node[26].appl.middleware.ExampleService #failed_proofs 0
scalar World.node[26].appl.middleware.ExampleService #loc_proof_send 15
scalar World.node[26].nic.phy80211p busyTime 0.0037954942528735
scalar World.node[26].nic.mac1609_4 ReceivedUnicastPackets 0
scalar World.node[26].nic.mac1609_4 ReceivedBroadcasts 1896
scalar World.node[26].nic.mac1609_4 SentPackets 283
scalar World.node[26].nic.mac1609_4 SentAcknowledgements 0
scalar World.node[26].nic.mac1609_4 SNIRLostPackets 149
scalar World.node[26].nic.mac1609_4 RXTXLostPackets 51
scalar World.node[26].nic.mac1609_4 TotalLostPackets 200
scalar World.node[26].nic.mac1609_4 DroppedPacketsInMac 0
scalar World.node[26].nic.mac1609_4 TooLittleTime 0
scalar World.node[26].nic.mac1609_4 TimesIntoBackoff 286
scalar World.node[26].nic.mac1609_4 SlotsBackoff 2160
scalar World.node[26].nic.mac1609_4 NumInternalContention 0
scalar World.node[26].nic.mac1609_4 totalBusyTime 0.372755333563
scalar World.node[22].appl.middleware.CaService #cam_sent 522
scalar World.node[22].appl.middleware.ExampleService #full_proofs 0
scalar World.node[22].appl.middleware.ExampleService #half_proofs 1
scalar World.node[22].appl.middleware.ExampleService #failed_proofs 2
scalar World.node[22].appl.middleware.ExampleService #loc_proof_send 29
scalar World.node[22].nic.phy80211p busyTime 0.0037043575418994
scalar World.node[22].nic.mac1609_4 ReceivedUnicastPackets 0
scalar World.node[22].nic.mac1609_4 ReceivedBroadcasts 3691
scalar World.node[22].nic.mac1609_4 SentPackets 551
scalar World.node[22].nic.mac1609_4 SentAcknowledgements 0
scalar World.node[22].nic.mac1609_4 SNIRLostPackets 409
scalar World.node[22].nic.mac1609_4 RXTXLostPackets 96
scalar World.node[22].nic.mac1609_4 TotalLostPackets 505
scalar World.node[22].nic.mac1609_4 DroppedPacketsInMac 0
scalar World.node[22].nic.mac1609_4 TooLittleTime 0
scalar World.node[22].nic.mac1609_4 TimesIntoBackoff 564
scalar World.node[22].nic.mac1609_4 SlotsBackoff 4120
scalar World.node[22].nic.mac1609_4 NumInternalContention 0
scalar World.node[22].nic.mac1609_4 totalBusyTime 0.747631292831
scalar World.node[24].appl.middleware.CaService #cam_sent 551
scalar World.node[24].appl.middleware.ExampleService #full_proofs 0
scalar World.node[24].appl.middleware.ExampleService #half_proofs 3
scalar World.node[24].appl.middleware.ExampleService #failed_proofs 0
scalar World.node[24].appl.middleware.ExampleService #loc_proof_send 25
scalar World.node[24].nic.phy80211p busyTime 0.0039078620689655
scalar World.node[24].nic.mac1609_4 ReceivedUnicastPackets 0
scalar World.node[24].nic.mac1609_4 ReceivedBroadcasts 3461
scalar World.node[24].nic.mac1609_4 SentPackets 576
scalar World.node[24].nic.mac1609_4 SentAcknowledgements 0
scalar World.node[24].nic.mac1609_4 SNIRLostPackets 761
scalar World.node[24].nic.mac1609_4 RXTXLostPackets 55
scalar World.node[24].nic.mac1609_4 TotalLostPackets 816
scalar World.node[24].nic.mac1609_4 DroppedPacketsInMac 0
scalar World.node[24].nic.mac1609_4 TooLittleTime 0
scalar World.node[24].nic.mac1609_4 TimesIntoBackoff 581
scalar World.node[24].nic.mac1609_4 SlotsBackoff 4510
scalar World.node[24].nic.mac1609_4 NumInternalContention 0
scalar World.node[24].nic.mac1609_4 totalBusyTime 0.76292
scalar World.node[21].appl.middleware.CaService #cam_sent 637
scalar World.node[21].appl.middleware.ExampleService #full_proofs 0
scalar World.node[21].appl.middleware.ExampleService #half_proofs 4
scalar World.node[21].appl.middleware.ExampleService #failed_proofs 0
scalar World.node[21].appl.middleware.ExampleService #loc_proof_send 30
scalar World.node[21].nic.phy80211p busyTime 0.0038585774058577
scalar World.node[21].nic.mac1609_4 ReceivedUnicastPackets 0
scalar World.node[21].nic.mac1609_4 ReceivedBroadcasts 4454
scalar World.node[21].nic.mac1609_4 SentPackets 667
scalar World.node[21].nic.mac1609_4 SentAcknowledgements 0
scalar World.node[21].nic.mac1609_4 SNIRLostPackets 1261
scalar World.node[21].nic.mac1609_4 RXTXLostPackets 88
scalar World.node[21].nic.mac1609_4 TotalLostPackets 1349
scalar World.node[21].nic.mac1609_4 DroppedPacketsInMac 0
scalar World.node[21].nic.mac1609_4 TooLittleTime 0
scalar World.node[21].nic.mac1609_4 TimesIntoBackoff 672
scalar World.node[21].nic.mac1609_4 SlotsBackoff 5152
scalar World.node[21].nic.mac1609_4 NumInternalContention 0
scalar World.node[21].nic.mac1609_4 totalBusyTime 1.020499336811
scalar World.node[25].appl.middleware.CaService #cam_sent 422
scalar World.node[25].appl.middleware.ExampleService #full_proofs 0
scalar World.node[25].appl.middleware.ExampleService #half_proofs 3
scalar World.node[25].appl.middleware.ExampleService #failed_proofs 0
scalar World.node[25].appl.middleware.ExampleService #loc_proof_send 28
scalar World.node[25].nic.phy80211p busyTime 0.0040203885714285
scalar World.node[25].nic.mac1609_4 ReceivedUnicastPackets 0
scalar World.node[25].nic.mac1609_4 ReceivedBroadcasts 3730
scalar World.node[25].nic.mac1609_4 SentPackets 450
scalar World.node[25].nic.mac1609_4 SentAcknowledgements 0
scalar World.node[25].nic.mac1609_4 SNIRLostPackets 638
scalar World.node[25].nic.mac1609_4 RXTXLostPackets 93
scalar World.node[25].nic.mac1609_4 TotalLostPackets 731
scalar World.node[25].nic.mac1609_4 DroppedPacketsInMac 0
scalar World.node[25].nic.mac1609_4 TooLittleTime 0
scalar World.node[25].nic.mac1609_4 TimesIntoBackoff 451
scalar World.node[25].nic.mac1609_4 SlotsBackoff 3407
scalar World.node[25].nic.mac1609_4 NumInternalContention 0
scalar World.node[25].nic.mac1609_4 totalBusyTime 0.767490132212
scalar World.node[29].appl.middleware.CaService #cam_sent 486
scalar World.node[29].appl.middleware.ExampleService #full_proofs 0
scalar World.node[29].appl.middleware.ExampleService #half_proofs 3
scalar World.node[29].appl.middleware.ExampleService #failed_proofs 0
scalar World.node[29].appl.middleware.ExampleService #loc_proof_send 37
scalar World.node[29].nic.phy80211p busyTime 0.0049021948717948
scalar World.node[29].nic.mac1609_4 ReceivedUnicastPackets 0
scalar World.node[29].nic.mac1609_4 ReceivedBroadcasts 5282
scalar World.node[29].nic.mac1609_4 SentPackets 523
scalar World.node[29].nic.mac1609_4 SentAcknowledgements 0
scalar World.node[29].nic.mac1609_4 SNIRLostPackets 651
scalar World.node[29].nic.mac1609_4 RXTXLostPackets 171
scalar World.node[29].nic.mac1609_4 TotalLostPackets 822
scalar World.node[29].nic.mac1609_4 DroppedPacketsInMac 0
scalar World.node[29].nic.mac1609_4 TooLittleTime 0
scalar World.node[29].nic.mac1609_4 TimesIntoBackoff 528
scalar World.node[29].nic.mac1609_4 SlotsBackoff 3825
scalar World.node[29].nic.mac1609_4 NumInternalContention 0
scalar World.node[29].nic.mac1609_4 totalBusyTime 1.025115154073
scalar World.node[27].appl.middleware.CaService #cam_sent 594
scalar World.node[27].appl.middleware.ExampleService #full_proofs 0
scalar World.node[27].appl.middleware.ExampleService #half_proofs 4
scalar World.node[27].appl.middleware.ExampleService #failed_proofs 0
scalar World.node[27].appl.middleware.ExampleService #loc_proof_send 47
scalar World.node[27].nic.phy80211p busyTime 0.0049528702928868
scalar World.node[27].nic.mac1609_4 ReceivedUnicastPackets 0
scalar World.node[27].nic.mac1609_4 ReceivedBroadcasts 6514
scalar World.node[27].nic.mac1609_4 SentPackets 641
scalar World.node[27].nic.mac1609_4 SentAcknowledgements 0
scalar World.node[27].nic.mac1609_4 SNIRLostPackets 836
scalar World.node[27].nic.mac1609_4 RXTXLostPackets 223
scalar World.node[27].nic.mac1609_4 TotalLostPackets 1059
scalar World.node[27].nic.mac1609_4 DroppedPacketsInMac 0
scalar World.node[27].nic.mac1609_4 TooLittleTime 0
scalar World.node[27].nic.mac1609_4 TimesIntoBackoff 645
scalar World.node[27].nic.mac1609_4 SlotsBackoff 4969
scalar World.node[27].nic.mac1609_4 NumInternalContention 0
scalar World.node[27].nic.mac1609_4 totalBusyTime 1.2707697492
scalar World.node[28].appl.middleware.CaService #cam_sent 609
scalar World.node[28].appl.middleware.ExampleService #full_proofs 1
scalar World.node[28].appl.middleware.ExampleService #half_proofs 3
scalar World.node[28].appl.middleware.ExampleService #failed_proofs 0
scalar World.node[28].appl.middleware.ExampleService #loc_proof_send 44
scalar World.node[28].nic.phy80211p busyTime 0.0050771478260867
scalar World.node[28].nic.mac1609_4 ReceivedUnicastPackets 0
scalar World.node[28].nic.mac1609_4 ReceivedBroadcasts 5994
scalar World.node[28].nic.mac1609_4 SentPackets 653
scalar World.node[28].nic.mac1609_4 SentAcknowledgements 0
scalar World.node[28].nic.mac1609_4 SNIRLostPackets 1277
scalar World.node[28].nic.mac1609_4 RXTXLostPackets 186
scalar World.node[28].nic.mac1609_4 TotalLostPackets 1463
scalar World.node[28].nic.mac1609_4 DroppedPacketsInMac 0
scalar World.node[28].nic.mac1609_4 TooLittleTime 0
scalar World.node[28].nic.mac1609_4 TimesIntoBackoff 658
scalar World.node[28].nic.mac1609_4 SlotsBackoff 4929
scalar World.node[28].nic.mac1609_4 NumInternalContention 0
scalar World.node[28].nic.mac1609_4 totalBusyTime 1.252110515727
scalar World.node[30].appl.middleware.CaService #cam_sent 595
scalar World.node[30].appl.middleware.ExampleService #full_proofs 0
scalar World.node[30].appl.middleware.ExampleService #half_proofs 4
scalar World.node[30].appl.middleware.ExampleService #failed_proofs 0
scalar World.node[30].appl.middleware.ExampleService #loc_proof_send 53
scalar World.node[30].nic.phy80211p busyTime 0.0053956239316235
scalar World.node[30].nic.mac1609_4 ReceivedUnicastPackets 0
scalar World.node[30].nic.mac1609_4 ReceivedBroadcasts 7149
scalar World.node[30].nic.mac1609_4 SentPackets 648
scalar World.node[30].nic.mac1609_4 SentAcknowledgements 0
scalar World.node[30].nic.mac1609_4 SNIRLostPackets 715
scalar World.node[30].nic.mac1609_4 RXTXLostPackets 197
scalar World.node[30].nic.mac1609_4 TotalLostPackets 912
scalar World.node[30].nic.mac1609_4 DroppedPacketsInMac 0
scalar World.node[30].nic.mac1609_4 TooLittleTime 0
scalar World.node[30].nic.mac1609_4 TimesIntoBackoff 650
scalar World.node[30].nic.mac1609_4 SlotsBackoff 5106
scalar World.node[30].nic.mac1609_4 NumInternalContention 0
scalar World.node[30].nic.mac1609_4 totalBusyTime 1.338808503425
scalar World.node[33].appl.middleware.CaService #cam_sent 543
scalar World.node[33].appl.middleware.ExampleService #full_proofs 0
scalar World.node[33].appl.middleware.ExampleService #half_proofs 4
scalar World.node[33].appl.middleware.ExampleService #failed_proofs 0
scalar World.node[33].appl.middleware.ExampleService #loc_proof_send 45
scalar World.node[33].nic.phy80211p busyTime 0.0054996363636361
scalar World.node[33].nic.mac1609_4 ReceivedUnicastPackets 0
scalar World.node[33].nic.mac1609_4 ReceivedBroadcasts 6099
scalar World.node[33].nic.mac1609_4 SentPackets 588
scalar World.node[33].nic.mac1609_4 SentAcknowledgements 0
scalar World.node[33].nic.mac1609_4 SNIRLostPackets 688
scalar World.node[33].nic.mac1609_4 RXTXLostPackets 207
scalar World.node[33].nic.mac1609_4 TotalLostPackets 895
scalar World.node[33].nic.mac1609_4 DroppedPacketsInMac 0
scalar World.node[33].nic.mac1609_4 TooLittleTime 0
scalar World.node[33].nic.mac1609_4 TimesIntoBackoff 595
scalar World.node[33].nic.mac1609_4 SlotsBackoff 4322
scalar World.node[33].nic.mac1609_4 NumInternalContention 0
scalar World.node[33].nic.mac1609_4 totalBusyTime 1.162060713458
scalar World.node[40].appl.middleware.CaService #cam_sent 262
scalar World.node[40].appl.middleware.ExampleService #full_proofs 0
scalar World.node[40].appl.middleware.ExampleService #half_proofs 2
scalar World.node[40].appl.middleware.ExampleService #failed_proofs 0
scalar World.node[40].appl.middleware.ExampleService #loc_proof_send 24
scalar World.node[40].nic.phy80211p busyTime 0.0061030769230768
scalar World.node[40].nic.mac1609_4 ReceivedUnicastPackets 0
scalar World.node[40].nic.mac1609_4 ReceivedBroadcasts 3516
scalar World.node[40].nic.mac1609_4 SentPackets 286
scalar World.node[40].nic.mac1609_4 SentAcknowledgements 0
scalar World.node[40].nic.mac1609_4 SNIRLostPackets 442
scalar World.node[40].nic.mac1609_4 RXTXLostPackets 151
scalar World.node[40].nic.mac1609_4 TotalLostPackets 593
scalar World.node[40].nic.mac1609_4 DroppedPacketsInMac 0
scalar World.node[40].nic.mac1609_4 TooLittleTime 0
scalar World.node[40].nic.mac1609_4 TimesIntoBackoff 288
scalar World.node[40].nic.mac1609_4 SlotsBackoff 2219
scalar World.node[40].nic.mac1609_4 NumInternalContention 0
scalar World.node[40].nic.mac1609_4 totalBusyTime 0.667958053762
scalar World.node[41].appl.middleware.CaService #cam_sent 314
scalar World.node[41].appl.middleware.ExampleService #full_proofs 0
scalar World.node[41].appl.middleware.ExampleService #half_proofs 1
scalar World.node[41].appl.middleware.ExampleService #failed_proofs 0
scalar World.node[41].appl.middleware.ExampleService #loc_proof_send 22
scalar World.node[41].nic.phy80211p busyTime 0.0060990638297872
scalar World.node[41].nic.mac1609_4 ReceivedUnicastPackets 0
scalar World.node[41].nic.mac1609_4 ReceivedBroadcasts 2857
scalar World.node[41].nic.mac1609_4 SentPackets 336
scalar World.node[41].nic.mac1609_4 SentAcknowledgements 0
scalar World.node[41].nic.mac1609_4 SNIRLostPackets 737
scalar World.node[41].nic.mac1609_4 RXTXLostPackets 101
scalar World.node[41].nic.mac1609_4 TotalLostPackets 838
scalar World.node[41].nic.mac1609_4 DroppedPacketsInMac 0
scalar World.node[41].nic.mac1609_4 TooLittleTime 0
scalar World.node[41].nic.mac1609_4 TimesIntoBackoff 338
scalar World.node[41].nic.mac1609_4 SlotsBackoff 2583
scalar World.node[41].nic.mac1609_4 NumInternalContention 0
scalar World.node[41].nic.mac1609_4 totalBusyTime 0.610784071338
scalar World.node[37].appl.middleware.CaService #cam_sent 362
scalar World.node[37].appl.middleware.ExampleService #full_proofs 0
scalar World.node[37].appl.middleware.ExampleService #half_proofs 3
scalar World.node[37].appl.middleware.ExampleService #failed_proofs 0
scalar World.node[37].appl.middleware.ExampleService #loc_proof_send 30
scalar World.node[37].nic.phy80211p busyTime 0.0062106853146852
scalar World.node[37].nic.mac1609_4 ReceivedUnicastPackets 0
scalar World.node[37].nic.mac1609_4 ReceivedBroadcasts 4637
scalar World.node[37].nic.mac1609_4 SentPackets 392
scalar World.node[37].nic.mac1609_4 SentAcknowledgements 0
scalar World.node[37].nic.mac1609_4 SNIRLostPackets 918
scalar World.node[37].nic.mac1609_4 RXTXLostPackets 89
scalar World.node[37].nic.mac1609_4 TotalLostPackets 1007
scalar World.node[37].nic.mac1609_4 DroppedPacketsInMac 0
scalar World.node[37].nic.mac1609_4 TooLittleTime 0
scalar World.node[37].nic.mac1609_4 TimesIntoBackoff 394
scalar World.node[37].nic.mac1609_4 SlotsBackoff 3089
scalar World.node[37].nic.mac1609_4 NumInternalContention 0
scalar World.node[37].nic.mac1609_4 totalBusyTime 0.925328107388
scalar World.node[32].appl.middleware.CaService #cam_sent 536
scalar World.node[32].appl.middleware.ExampleService #full_proofs 0
scalar World.node[32].appl.middleware.ExampleService #half_proofs 4
scalar World.node[32].appl.middleware.ExampleService #failed_proofs 0
scalar World.node[32].appl.middleware.ExampleService #loc_proof_send 48
scalar World.node[32].nic.phy80211p busyTime 0.0054997235023038
scalar World.node[32].nic.mac1609_4 ReceivedUnicastPackets 0
scalar World.node[32].nic.mac1609_4 ReceivedBroadcasts 6914
scalar World.node[32].nic.mac1609_4 SentPackets 584
scalar World.node[32].nic.mac1609_4 SentAcknowledgements 0
scalar World.node[32].nic.mac1609_4 SNIRLostPackets 502
scalar World.node[32].nic.mac1609_4 RXTXLostPackets 245
scalar World.node[32].nic.mac1609_4 TotalLostPackets 747
scalar World.node[32].nic.mac1609_4 DroppedPacketsInMac 0
scalar World.node[32].nic.mac1609_4 TooLittleTime 0
scalar World.node[32].nic.mac1609_4 TimesIntoBackoff 587
scalar World.node[32].nic.mac1609_4 SlotsBackoff 4454
scalar World.node[32].nic.mac1609_4 NumInternalContention 0
scalar World.node[32].nic.mac1609_4 totalBusyTime 1.266409981149
scalar World.node[36].appl.middleware.CaService #cam_sent 411
scalar World.node[36].appl.middleware.ExampleService #full_proofs 0
scalar World.node[36].appl.middleware.ExampleService #half_proofs 3
scalar World.node[36].appl.middleware.ExampleService #failed_proofs 0
scalar World.node[36].appl.middleware.ExampleService #loc_proof_send 41
scalar World.node[36].nic.phy80211p busyTime 0.0059406746987951
scalar World.node[36].nic.mac1609_4 ReceivedUnicastPackets 0
scalar World.node[36].nic.mac1609_4 ReceivedBroadcasts 5709
scalar World.node[36].nic.mac1609_4 SentPackets 452
scalar World.node[36].nic.mac1609_4 SentAcknowledgements 0
scalar World.node[36].nic.mac1609_4 SNIRLostPackets 414
scalar World.node[36].nic.mac1609_4 RXTXLostPackets 270
scalar World.node[36].nic.mac1609_4 TotalLostPackets 684
scalar World.node[36].nic.mac1609_4 DroppedPacketsInMac 0
scalar World.node[36].nic.mac1609_4 TooLittleTime 0
scalar World.node[36].nic.mac1609_4 TimesIntoBackoff 461
scalar World.node[36].nic.mac1609_4 SlotsBackoff 3536
scalar World.node[36].nic.mac1609_4 NumInternalContention 0
scalar World.node[36].nic.mac1609_4 totalBusyTime 1.046580163391
scalar World.node[48].appl.middleware.CaService #cam_sent 108
scalar World.node[48].appl.middleware.ExampleService #full_proofs 0
scalar World.node[48].appl.middleware.ExampleService #half_proofs 0
scalar World.node[48].appl.middleware.ExampleService #failed_proofs 0
scalar World.node[48].appl.middleware.ExampleService #loc_proof_send 7
scalar World.node[48].nic.phy80211p busyTime 0.0052775
scalar World.node[48].nic.mac1609_4 ReceivedUnicastPackets 0
scalar World.node[48].nic.mac1609_4 ReceivedBroadcasts 891
scalar World.node[48].nic.mac1609_4 SentPackets 115
scalar World.node[48].nic.mac1609_4 SentAcknowledgements 0
scalar World.node[48].nic.mac1609_4 SNIRLostPackets 164
scalar World.node[48].nic.mac1609_4 RXTXLostPackets 36
scalar World.node[48].nic.mac1609_4 TotalLostPackets 200
scalar World.node[48].nic.mac1609_4 DroppedPacketsInMac 0
scalar World.node[48].nic.mac1609_4 TooLittleTime 0
scalar World.node[48].nic.mac1609_4 TimesIntoBackoff 116
scalar World.node[48].nic.mac1609_4 SlotsBackoff 884
scalar World.node[48].nic.mac1609_4 NumInternalContention 0
scalar World.node[48].nic.mac1609_4 totalBusyTime 0.183339
scalar World.node[34].appl.middleware.CaService #cam_sent 569
scalar World.node[34].appl.middleware.ExampleService #full_proofs 0
scalar World.node[34].appl.middleware.ExampleService #half_proofs 4
scalar World.node[34].appl.middleware.ExampleService #failed_proofs 0
scalar World.node[34].appl.middleware.ExampleService #loc_proof_send 47
scalar World.node[34].nic.phy80211p busyTime 0.0056401043478256
scalar World.node[34].nic.mac1609_4 ReceivedUnicastPackets 0
scalar World.node[34].nic.mac1609_4 ReceivedBroadcasts 7108
scalar World.node[34].nic.mac1609_4 SentPackets 616
scalar World.node[34].nic.mac1609_4 SentAcknowledgements 0
scalar World.node[34].nic.mac1609_4 SNIRLostPackets 954
scalar World.node[34].nic.mac1609_4 RXTXLostPackets 274
scalar World.node[34].nic.mac1609_4 TotalLostPackets 1228
scalar World.node[34].nic.mac1609_4 DroppedPacketsInMac 0
scalar World.node[34].nic.mac1609_4 TooLittleTime 0
scalar World.node[34].nic.mac1609_4 TimesIntoBackoff 765
scalar World.node[34].nic.mac1609_4 SlotsBackoff 5603
scalar World.node[34].nic.mac1609_4 NumInternalContention 0
scalar World.node[34].nic.mac1609_4 totalBusyTime 1.375496528382
scalar World.node[31].appl.middleware.CaService #cam_sent 591
scalar World.node[31].appl.middleware.ExampleService #full_proofs 0
scalar World.node[31].appl.middleware.ExampleService #half_proofs 4
scalar World.node[31].appl.middleware.ExampleService #failed_proofs 0
scalar World.node[31].appl.middleware.ExampleService #loc_proof_send 58
scalar World.node[31].nic.phy80211p busyTime 0.0054785318352054
scalar World.node[31].nic.mac1609_4 ReceivedUnicastPackets 0
scalar World.node[31].nic.mac1609_4 ReceivedBroadcasts 8508
scalar World.node[31].nic.mac1609_4 SentPackets 649
scalar World.node[31].nic.mac1609_4 SentAcknowledgements 0
scalar World.node[31].nic.mac1609_4 SNIRLostPackets 579
scalar World.node[31].nic.mac1609_4 RXTXLostPackets 293
scalar World.node[31].nic.mac1609_4 TotalLostPackets 872
scalar World.node[31].nic.mac1609_4 DroppedPacketsInMac 0
scalar World.node[31].nic.mac1609_4 TooLittleTime 0
scalar World.node[31].nic.mac1609_4 TimesIntoBackoff 658
scalar World.node[31].nic.mac1609_4 SlotsBackoff 4754
scalar World.node[31].nic.mac1609_4 NumInternalContention 0
scalar World.node[31].nic.mac1609_4 totalBusyTime 1.541899136534
scalar World.node[43].appl.middleware.CaService #cam_sent 277
scalar World.node[43].appl.middleware.ExampleService #full_proofs 0
scalar World.node[43].appl.middleware.ExampleService #half_proofs 2
scalar World.node[43].appl.middleware.ExampleService #failed_proofs 0
scalar World.node[43].appl.middleware.ExampleService #loc_proof_send 25
scalar World.node[43].nic.phy80211p busyTime 0.006079646017699
scalar World.node[43].nic.mac1609_4 ReceivedUnicastPackets 0
scalar World.node[43].nic.mac1609_4 ReceivedBroadcasts 3751
scalar World.node[43].nic.mac1609_4 SentPackets 302
scalar World.node[43].nic.mac1609_4 SentAcknowledgements 0
scalar World.node[43].nic.mac1609_4 SNIRLostPackets 520
scalar World.node[43].nic.mac1609_4 RXTXLostPackets 150
scalar World.node[43].nic.mac1609_4 TotalLostPackets 670
scalar World.node[43].nic.mac1609_4 DroppedPacketsInMac 0
scalar World.node[43].nic.mac1609_4 TooLittleTime 0
scalar World.node[43].nic.mac1609_4 TimesIntoBackoff 304
scalar World.node[43].nic.mac1609_4 SlotsBackoff 2517
scalar World.node[43].nic.mac1609_4 NumInternalContention 0
scalar World.node[43].nic.mac1609_4 totalBusyTime 0.72495
scalar World.node[38].appl.middleware.CaService #cam_sent 511
scalar World.node[38].appl.middleware.ExampleService #full_proofs 0
scalar World.node[38].appl.middleware.ExampleService #half_proofs 3
scalar World.node[38].appl.middleware.ExampleService #failed_proofs 0
scalar World.node[38].appl.middleware.ExampleService #loc_proof_send 33
scalar World.node[38].nic.phy80211p busyTime 0.0057768756218903
scalar World.node[38].nic.mac1609_4 ReceivedUnicastPackets 0
scalar World.node[38].nic.mac1609_4 ReceivedBroadcasts 4973
scalar World.node[38].nic.mac1609_4 SentPackets 544
scalar World.node[38].nic.mac1609_4 SentAcknowledgements 0
scalar World.node[38].nic.mac1609_4 SNIRLostPackets 2259
scalar World.node[38].nic.mac1609_4 RXTXLostPackets 223
scalar World.node[38].nic.mac1609_4 TotalLostPackets 2482
scalar World.node[38].nic.mac1609_4 DroppedPacketsInMac 0
scalar World.node[38].nic.mac1609_4 TooLittleTime 0
scalar World.node[38].nic.mac1609_4 TimesIntoBackoff 548
scalar World.node[38].nic.mac1609_4 SlotsBackoff 4171
scalar World.node[38].nic.mac1609_4 NumInternalContention 0
scalar World.node[38].nic.mac1609_4 totalBusyTime 1.22550412002
scalar World.node[45].appl.middleware.CaService #cam_sent 377
scalar World.node[45].appl.middleware.ExampleService #full_proofs 1
scalar World.node[45].appl.middleware.ExampleService #half_proofs 1
scalar World.node[45].appl.middleware.ExampleService #failed_proofs 0
scalar World.node[45].appl.middleware.ExampleService #loc_proof_send 28
scalar World.node[45].nic.phy80211p busyTime 0.0056434809160304
scalar World.node[45].nic.mac1609_4 ReceivedUnicastPackets 0
scalar World.node[45].nic.mac1609_4 ReceivedBroadcasts 4224
scalar World.node[45].nic.mac1609_4 SentPackets 405
scalar World.node[45].nic.mac1609_4 SentAcknowledgements 0
scalar World.node[45].nic.mac1609_4 SNIRLostPackets 391
scalar World.node[45].nic.mac1609_4 RXTXLostPackets 77
scalar World.node[45].nic.mac1609_4 TotalLostPackets 468
scalar World.node[45].nic.mac1609_4 DroppedPacketsInMac 0
scalar World.node[45].nic.mac1609_4 TooLittleTime 0
scalar World.node[45].nic.mac1609_4 TimesIntoBackoff 406
scalar World.node[45].nic.mac1609_4 SlotsBackoff 3084
scalar World.node[45].nic.mac1609_4 NumInternalContention 0
scalar World.node[45].nic.mac1609_4 totalBusyTime 0.783037087521
scalar World.node[44].appl.middleware.CaService #cam_sent 368
scalar World.node[44].appl.middleware.ExampleService #full_proofs 1
scalar World.node[44].appl.middleware.ExampleService #half_proofs 2
scalar World.node[44].appl.middleware.ExampleService #failed_proofs 0
scalar World.node[44].appl.middleware.ExampleService #loc_proof_send 29
scalar World.node[44].nic.phy80211p busyTime 0.0057301517241379
scalar World.node[44].nic.mac1609_4 ReceivedUnicastPackets 0
scalar World.node[44].nic.mac1609_4 ReceivedBroadcasts 4285
scalar World.node[44].nic.mac1609_4 SentPackets 397
scalar World.node[44].nic.mac1609_4 SentAcknowledgements 0
scalar World.node[44].nic.mac1609_4 SNIRLostPackets 895
scalar World.node[44].nic.mac1609_4 RXTXLostPackets 132
scalar World.node[44].nic.mac1609_4 TotalLostPackets 1027
scalar World.node[44].nic.mac1609_4 DroppedPacketsInMac 0
scalar World.node[44].nic.mac1609_4 TooLittleTime 0
scalar World.node[44].nic.mac1609_4 TimesIntoBackoff 401
scalar World.node[44].nic.mac1609_4 SlotsBackoff 3074
scalar World.node[44].nic.mac1609_4 NumInternalContention 0
scalar World.node[44].nic.mac1609_4 totalBusyTime 0.876325745558
scalar World.node[35].appl.middleware.CaService #cam_sent 679
scalar World.node[35].appl.middleware.ExampleService #full_proofs 0
scalar World.node[35].appl.middleware.ExampleService #half_proofs 4
scalar World.node[35].appl.middleware.ExampleService #failed_proofs 0
scalar World.node[35].appl.middleware.ExampleService #loc_proof_send 54
scalar World.node[35].nic.phy80211p busyTime 0.0055147187499995
scalar World.node[35].nic.mac1609_4 ReceivedUnicastPackets 0
scalar World.node[35].nic.mac1609_4 ReceivedBroadcasts 7844
scalar World.node[35].nic.mac1609_4 SentPackets 733
scalar World.node[35].nic.mac1609_4 SentAcknowledgements 0
scalar World.node[35].nic.mac1609_4 SNIRLostPackets 935
scalar World.node[35].nic.mac1609_4 RXTXLostPackets 280
scalar World.node[35].nic.mac1609_4 TotalLostPackets 1215
scalar World.node[35].nic.mac1609_4 DroppedPacketsInMac 0
scalar World.node[35].nic.mac1609_4 TooLittleTime 0
scalar World.node[35].nic.mac1609_4 TimesIntoBackoff 738
scalar World.node[35].nic.mac1609_4 SlotsBackoff 5610
scalar World.node[35].nic.mac1609_4 NumInternalContention 0
scalar World.node[35].nic.mac1609_4 totalBusyTime 1.501598002351
scalar World.node[42].appl.middleware.CaService #cam_sent 484
scalar World.node[42].appl.middleware.ExampleService #full_proofs 0
scalar World.node[42].appl.middleware.ExampleService #half_proofs 3
scalar World.node[42].appl.middleware.ExampleService #failed_proofs 0
scalar World.node[42].appl.middleware.ExampleService #loc_proof_send 34
scalar World.node[42].nic.phy80211p busyTime 0.00552602955665
scalar World.node[42].nic.mac1609_4 ReceivedUnicastPackets 0
scalar World.node[42].nic.mac1609_4 ReceivedBroadcasts 5698
scalar World.node[42].nic.mac1609_4 SentPackets 518
scalar World.node[42].nic.mac1609_4 SentAcknowledgements 0
scalar World.node[42].nic.mac1609_4 SNIRLostPackets 1283
scalar World.node[42].nic.mac1609_4 RXTXLostPackets 175
scalar World.node[42].nic.mac1609_4 TotalLostPackets 1458
scalar World.node[42].nic.mac1609_4 DroppedPacketsInMac 0
scalar World.node[42].nic.mac1609_4 TooLittleTime 0
scalar World.node[42].nic.mac1609_4 TimesIntoBackoff 524
scalar World.node[42].nic.mac1609_4 SlotsBackoff 3946
scalar World.node[42].nic.mac1609_4 NumInternalContention 0
scalar World.node[42].nic.mac1609_4 totalBusyTime 1.18329427687
scalar World.node[58].appl.middleware.CaService #cam_sent 62
scalar World.node[58].appl.middleware.ExampleService #full_proofs 0
scalar World.node[58].appl.middleware.ExampleService #half_proofs 0
scalar World.node[58].appl.middleware.ExampleService #failed_proofs 0
scalar World.node[58].appl.middleware.ExampleService #loc_proof_send 5
scalar World.node[58].nic.phy80211p busyTime 0.0049404444444444
scalar World.node[58].nic.mac1609_4 ReceivedUnicastPackets 0
scalar World.node[58].nic.mac1609_4 ReceivedBroadcasts 538
scalar World.node[58].nic.mac1609_4 SentPackets 67
scalar World.node[58].nic.mac1609_4 SentAcknowledgements 0
scalar World.node[58].nic.mac1609_4 SNIRLostPackets 16
scalar World.node[58].nic.mac1609_4 RXTXLostPackets 23
scalar World.node[58].nic.mac1609_4 TotalLostPackets 39
scalar World.node[58].nic.mac1609_4 DroppedPacketsInMac 0
scalar World.node[58].nic.mac1609_4 TooLittleTime 0
scalar World.node[58].nic.mac1609_4 TimesIntoBackoff 67
scalar World.node[58].nic.mac1609_4 SlotsBackoff 491
scalar World.node[58].nic.mac1609_4 NumInternalContention 0
scalar World.node[58].nic.mac1609_4 totalBusyTime 0.098219
scalar World.node[52].appl.middleware.CaService #cam_sent 322
scalar World.node[52].appl.middleware.ExampleService #full_proofs 0
scalar World.node[52].appl.middleware.ExampleService #half_proofs 2
scalar World.node[52].appl.middleware.ExampleService #failed_proofs 0
scalar World.node[52].appl.middleware.ExampleService #loc_proof_send 20
scalar World.node[52].nic.phy80211p busyTime 0.0048070303030302
scalar World.node[52].nic.mac1609_4 ReceivedUnicastPackets 0
scalar World.node[52].nic.mac1609_4 ReceivedBroadcasts 2649
scalar World.node[52].nic.mac1609_4 SentPackets 342
scalar World.node[52].nic.mac1609_4 SentAcknowledgements 0
scalar World.node[52].nic.mac1609_4 SNIRLostPackets 320
scalar World.node[52].nic.mac1609_4 RXTXLostPackets 52
scalar World.node[52].nic.mac1609_4 TotalLostPackets 372
scalar World.node[52].nic.mac1609_4 DroppedPacketsInMac 0
scalar World.node[52].nic.mac1609_4 TooLittleTime 0
scalar World.node[52].nic.mac1609_4 TimesIntoBackoff 397
scalar World.node[52].nic.mac1609_4 SlotsBackoff 2985
scalar World.node[52].nic.mac1609_4 NumInternalContention 0
scalar World.node[52].nic.mac1609_4 totalBusyTime 0.520086051575
scalar World.node[46].appl.middleware.CaService #cam_sent 453
scalar World.node[46].appl.middleware.ExampleService #full_proofs 0
scalar World.node[46].appl.middleware.ExampleService #half_proofs 3
scalar World.node[46].appl.middleware.ExampleService #failed_proofs 0
scalar World.node[46].appl.middleware.ExampleService #loc_proof_send 37
scalar World.node[46].nic.phy80211p busyTime 0.0052465759162303
scalar World.node[46].nic.mac1609_4 ReceivedUnicastPackets 0
scalar World.node[46].nic.mac1609_4 ReceivedBroadcasts 5812
scalar World.node[46].nic.mac1609_4 SentPackets 490
scalar World.node[46].nic.mac1609_4 SentAcknowledgements 0
scalar World.node[46].nic.mac1609_4 SNIRLostPackets 417
scalar World.node[46].nic.mac1609_4 RXTXLostPackets 146
scalar World.node[46].nic.mac1609_4 TotalLostPackets 563
scalar World.node[46].nic.mac1609_4 DroppedPacketsInMac 0
scalar World.node[46].nic.mac1609_4 TooLittleTime 0
scalar World.node[46].nic.mac1609_4 TimesIntoBackoff 492
scalar World.node[46].nic.mac1609_4 SlotsBackoff 3509
scalar World.node[46].nic.mac1609_4 NumInternalContention 0
scalar World.node[46].nic.mac1609_4 totalBusyTime 1.059339133524
scalar World.node[47].appl.middleware.CaService #cam_sent 463
scalar World.node[47].appl.middleware.ExampleService #full_proofs 0
scalar World.node[47].appl.middleware.ExampleService #half_proofs 2
scalar World.node[47].appl.middleware.ExampleService #failed_proofs 0
scalar World.node[47].appl.middleware.ExampleService #loc_proof_send 33
scalar World.node[47].nic.phy80211p busyTime 0.0050071818181817
scalar World.node[47].nic.mac1609_4 ReceivedUnicastPackets 0
scalar World.node[47].nic.mac1609_4 ReceivedBroadcasts 5251
scalar World.node[47].nic.mac1609_4 SentPackets 496
scalar World.node[47].nic.mac1609_4 SentAcknowledgements 0
scalar World.node[47].nic.mac1609_4 SNIRLostPackets 215
scalar World.node[47].nic.mac1609_4 RXTXLostPackets 162
scalar World.node[47].nic.mac1609_4 TotalLostPackets 377
scalar World.node[47].nic.mac1609_4 DroppedPacketsInMac 0
scalar World.node[47].nic.mac1609_4 TooLittleTime 0
scalar World.node[47].nic.mac1609_4 TimesIntoBackoff 503
scalar World.node[47].nic.mac1609_4 SlotsBackoff 3829
scalar World.node[47].nic.mac1609_4 NumInternalContention 0
scalar World.node[47].nic.mac1609_4 totalBusyTime 0.948897037414
scalar World.node[56].appl.middleware.CaService #cam_sent 238
scalar World.node[56].appl.middleware.ExampleService #full_proofs 0
scalar World.node[56].appl.middleware.ExampleService #half_proofs 1
scalar World.node[56].appl.middleware.ExampleService #failed_proofs 0
scalar World.node[56].appl.middleware.ExampleService #loc_proof_send 16
scalar World.node[56].nic.phy80211p busyTime 0.004507111111111
scalar World.node[56].nic.mac1609_4 ReceivedUnicastPackets 0
scalar World.node[56].nic.mac1609_4 ReceivedBroadcasts 2417
scalar World.node[56].nic.mac1609_4 SentPackets 254
scalar World.node[56].nic.mac1609_4 SentAcknowledgements 0
scalar World.node[56].nic.mac1609_4 SNIRLostPackets 97
scalar World.node[56].nic.mac1609_4 RXTXLostPackets 65
scalar World.node[56].nic.mac1609_4 TotalLostPackets 162
scalar World.node[56].nic.mac1609_4 DroppedPacketsInMac 0
scalar World.node[56].nic.mac1609_4 TooLittleTime 0
scalar World.node[56].nic.mac1609_4 TimesIntoBackoff 295
scalar World.node[56].nic.mac1609_4 SlotsBackoff 2300
scalar World.node[56].nic.mac1609_4 NumInternalContention 0
scalar World.node[56].nic.mac1609_4 totalBusyTime 0.441286047578
scalar World.node[39].appl.middleware.CaService #cam_sent 823
scalar World.node[39].appl.middleware.ExampleService #full_proofs 0
scalar World.node[39].appl.middleware.ExampleService #half_proofs 5
scalar World.node[39].appl.middleware.ExampleService #failed_proofs 0
scalar World.node[39].appl.middleware.ExampleService #loc_proof_send 64
scalar World.node[39].nic.phy80211p busyTime 0.0052784983818764
scalar World.node[39].nic.mac1609_4 ReceivedUnicastPackets 0
scalar World.node[39].nic.mac1609_4 ReceivedBroadcasts 9351
scalar World.node[39].nic.mac1609_4 SentPackets 887
scalar World.node[39].nic.mac1609_4 SentAcknowledgements 0
scalar World.node[39].nic.mac1609_4 SNIRLostPackets 804
scalar World.node[39].nic.mac1609_4 RXTXLostPackets 272
scalar World.node[39].nic.mac1609_4 TotalLostPackets 1076
scalar World.node[39].nic.mac1609_4 DroppedPacketsInMac 0
scalar World.node[39].nic.mac1609_4 TooLittleTime 0
scalar World.node[39].nic.mac1609_4 TimesIntoBackoff 892
scalar World.node[39].nic.mac1609_4 SlotsBackoff 6694
scalar World.node[39].nic.mac1609_4 NumInternalContention 0
scalar World.node[39].nic.mac1609_4 totalBusyTime 1.740255935628
scalar World.node[53].appl.middleware.CaService #cam_sent 284
scalar World.node[53].appl.middleware.ExampleService #full_proofs 0
scalar World.node[53].appl.middleware.ExampleService #half_proofs 3
scalar World.node[53].appl.middleware.ExampleService #failed_proofs 0
scalar World.node[53].appl.middleware.ExampleService #loc_proof_send 27
scalar World.node[53].nic.phy80211p busyTime 0.0046136811594203
scalar World.node[53].nic.mac1609_4 ReceivedUnicastPackets 0
scalar World.node[53].nic.mac1609_4 ReceivedBroadcasts 3528
scalar World.node[53].nic.mac1609_4 SentPackets 311
scalar World.node[53].nic.mac1609_4 SentAcknowledgements 0
scalar World.node[53].nic.mac1609_4 SNIRLostPackets 421
scalar World.node[53].nic.mac1609_4 RXTXLostPackets 135
scalar World.node[53].nic.mac1609_4 TotalLostPackets 556
scalar World.node[53].nic.mac1609_4 DroppedPacketsInMac 0
scalar World.node[53].nic.mac1609_4 TooLittleTime 0
scalar World.node[53].nic.mac1609_4 TimesIntoBackoff 313
scalar World.node[53].nic.mac1609_4 SlotsBackoff 2426
scalar World.node[53].nic.mac1609_4 NumInternalContention 0
scalar World.node[53].nic.mac1609_4 totalBusyTime 0.681199087896
scalar World.node[50].appl.middleware.CaService #cam_sent 472
scalar World.node[50].appl.middleware.ExampleService #full_proofs 0
scalar World.node[50].appl.middleware.ExampleService #half_proofs 3
scalar World.node[50].appl.middleware.ExampleService #failed_proofs 0
scalar World.node[50].appl.middleware.ExampleService #loc_proof_send 31
scalar World.node[50].nic.phy80211p busyTime 0.0044951602209944
scalar World.node[50].nic.mac1609_4 ReceivedUnicastPackets 0
scalar World.node[50].nic.mac1609_4 ReceivedBroadcasts 4552
scalar World.node[50].nic.mac1609_4 SentPackets 503
scalar World.node[50].nic.mac1609_4 SentAcknowledgements 0
scalar World.node[50].nic.mac1609_4 SNIRLostPackets 493
scalar World.node[50].nic.mac1609_4 RXTXLostPackets 125
scalar World.node[50].nic.mac1609_4 TotalLostPackets 618
scalar World.node[50].nic.mac1609_4 DroppedPacketsInMac 0
scalar World.node[50].nic.mac1609_4 TooLittleTime 0
scalar World.node[50].nic.mac1609_4 TimesIntoBackoff 507
scalar World.node[50].nic.mac1609_4 SlotsBackoff 3810
scalar World.node[50].nic.mac1609_4 NumInternalContention 0
scalar World.node[50].nic.mac1609_4 totalBusyTime 0.883807401033
scalar World.node[57].appl.middleware.CaService #cam_sent 403
scalar World.node[57].appl.middleware.ExampleService #full_proofs 0
scalar World.node[57].appl.middleware.ExampleService #half_proofs 2
scalar World.node[57].appl.middleware.ExampleService #failed_proofs 0
scalar World.node[57].appl.middleware.ExampleService #loc_proof_send 19
scalar World.node[57].nic.phy80211p busyTime 0.0039061764705882
scalar World.node[57].nic.mac1609_4 ReceivedUnicastPackets 0
scalar World.node[57].nic.mac1609_4 ReceivedBroadcasts 3179
scalar World.node[57].nic.mac1609_4 SentPackets 422
scalar World.node[57].nic.mac1609_4 SentAcknowledgements 0
scalar World.node[57].nic.mac1609_4 SNIRLostPackets 114
scalar World.node[57].nic.mac1609_4 RXTXLostPackets 67
scalar World.node[57].nic.mac1609_4 TotalLostPackets 181
scalar World.node[57].nic.mac1609_4 DroppedPacketsInMac 0
scalar World.node[57].nic.mac1609_4 TooLittleTime 0
scalar World.node[57].nic.mac1609_4 TimesIntoBackoff 425
scalar World.node[57].nic.mac1609_4 SlotsBackoff 2993
scalar World.node[57].nic.mac1609_4 NumInternalContention 0
scalar World.node[57].nic.mac1609_4 totalBusyTime 0.592446156216
scalar World.node[51].appl.middleware.CaService #cam_sent 505
scalar World.node[51].appl.middleware.ExampleService #full_proofs 0
scalar World.node[51].appl.middleware.ExampleService #half_proofs 3
scalar World.node[51].appl.middleware.ExampleService #failed_proofs 0
scalar World.node[51].appl.middleware.ExampleService #loc_proof_send 31
scalar World.node[51].nic.phy80211p busyTime 0.0042481509433962
scalar World.node[51].nic.mac1609_4 ReceivedUnicastPackets 0
scalar World.node[51].nic.mac1609_4 ReceivedBroadcasts 4987
scalar World.node[51].nic.mac1609_4 SentPackets 536
scalar World.node[51].nic.mac1609_4 SentAcknowledgements 0
scalar World.node[51].nic.mac1609_4 SNIRLostPackets 603
scalar World.node[51].nic.mac1609_4 RXTXLostPackets 96
scalar World.node[51].nic.mac1609_4 TotalLostPackets 699
scalar World.node[51].nic.mac1609_4 DroppedPacketsInMac 0
scalar World.node[51].nic.mac1609_4 TooLittleTime 0
scalar World.node[51].nic.mac1609_4 TimesIntoBackoff 577
scalar World.node[51].nic.mac1609_4 SlotsBackoff 4405
scalar World.node[51].nic.mac1609_4 NumInternalContention 0
scalar World.node[51].nic.mac1609_4 totalBusyTime 0.972736024319
scalar World.node[59].appl.middleware.CaService #cam_sent 418
scalar World.node[59].appl.middleware.ExampleService #full_proofs 0
scalar World.node[59].appl.middleware.ExampleService #half_proofs 2
scalar World.node[59].appl.middleware.ExampleService #failed_proofs 0
scalar World.node[59].appl.middleware.ExampleService #loc_proof_send 13
scalar World.node[59].nic.phy80211p busyTime 0.003355328
scalar World.node[59].nic.mac1609_4 ReceivedUnicastPackets 0
scalar World.node[59].nic.mac1609_4 ReceivedBroadcasts 2230
scalar World.node[59].nic.mac1609_4 SentPackets 431
scalar World.node[59].nic.mac1609_4 SentAcknowledgements 0
scalar World.node[59].nic.mac1609_4 SNIRLostPackets 362
scalar World.node[59].nic.mac1609_4 RXTXLostPackets 38
scalar World.node[59].nic.mac1609_4 TotalLostPackets 400
scalar World.node[59].nic.mac1609_4 DroppedPacketsInMac 0
scalar World.node[59].nic.mac1609_4 TooLittleTime 0
scalar World.node[59].nic.mac1609_4 TimesIntoBackoff 432
scalar World.node[59].nic.mac1609_4 SlotsBackoff 3397
scalar World.node[59].nic.mac1609_4 NumInternalContention 0
scalar World.node[59].nic.mac1609_4 totalBusyTime 0.485567
scalar World.node[54].appl.middleware.CaService #cam_sent 494
scalar World.node[54].appl.middleware.ExampleService #full_proofs 0
scalar World.node[54].appl.middleware.ExampleService #half_proofs 3
scalar World.node[54].appl.middleware.ExampleService #failed_proofs 0
scalar World.node[54].appl.middleware.ExampleService #loc_proof_send 24
scalar World.node[54].nic.phy80211p busyTime 0.0040128730964467
scalar World.node[54].nic.mac1609_4 ReceivedUnicastPackets 0
scalar World.node[54].nic.mac1609_4 ReceivedBroadcasts 4446
scalar World.node[54].nic.mac1609_4 SentPackets 518
scalar World.node[54].nic.mac1609_4 SentAcknowledgements 0
scalar World.node[54].nic.mac1609_4 SNIRLostPackets 448
scalar World.node[54].nic.mac1609_4 RXTXLostPackets 91
scalar World.node[54].nic.mac1609_4 TotalLostPackets 539
scalar World.node[54].nic.mac1609_4 DroppedPacketsInMac 0
scalar World.node[54].nic.mac1609_4 TooLittleTime 0
scalar World.node[54].nic.mac1609_4 TimesIntoBackoff 519
scalar World.node[54].nic.mac1609_4 SlotsBackoff 3724
scalar World.node[54].nic.mac1609_4 NumInternalContention 0
scalar World.node[54].nic.mac1609_4 totalBusyTime 0.865854604714
scalar World.node[55].appl.middleware.CaService #cam_sent 408
scalar World.node[55].appl.middleware.ExampleService #full_proofs 0
scalar World.node[55].appl.middleware.ExampleService #half_proofs 2
scalar World.node[55].appl.middleware.ExampleService #failed_proofs 1
scalar World.node[55].appl.middleware.ExampleService #loc_proof_send 27
scalar World.node[55].nic.phy80211p busyTime 0.0039624522613065
scalar World.node[55].nic.mac1609_4 ReceivedUnicastPackets 0
scalar World.node[55].nic.mac1609_4 ReceivedBroadcasts 4523
scalar World.node[55].nic.mac1609_4 SentPackets 435
scalar World.node[55].nic.mac1609_4 SentAcknowledgements 0
scalar World.node[55].nic.mac1609_4 SNIRLostPackets 368
scalar World.node[55].nic.mac1609_4 RXTXLostPackets 52
scalar World.node[55].nic.mac1609_4 TotalLostPackets 420
scalar World.node[55].nic.mac1609_4 DroppedPacketsInMac 0
scalar World.node[55].nic.mac1609_4 TooLittleTime 0
scalar World.node[55].nic.mac1609_4 TimesIntoBackoff 437
scalar World.node[55].nic.mac1609_4 SlotsBackoff 3231
scalar World.node[55].nic.mac1609_4 NumInternalContention 0
scalar World.node[55].nic.mac1609_4 totalBusyTime 0.846603217627
scalar World.node[64].appl.middleware.CaService #cam_sent 182
scalar World.node[64].appl.middleware.ExampleService #full_proofs 0
scalar World.node[64].appl.middleware.ExampleService #half_proofs 1
scalar World.node[64].appl.middleware.ExampleService #failed_proofs 0
scalar World.node[64].appl.middleware.ExampleService #loc_proof_send 5
scalar World.node[64].nic.phy80211p busyTime 0.0031677037037037
scalar World.node[64].nic.mac1609_4 ReceivedUnicastPackets 0
scalar World.node[64].nic.mac1609_4 ReceivedBroadcasts 928
scalar World.node[64].nic.mac1609_4 SentPackets 187
scalar World.node[64].nic.mac1609_4 SentAcknowledgements 0
scalar World.node[64].nic.mac1609_4 SNIRLostPackets 126
scalar World.node[64].nic.mac1609_4 RXTXLostPackets 4
scalar World.node[64].nic.mac1609_4 TotalLostPackets 130
scalar World.node[64].nic.mac1609_4 DroppedPacketsInMac 0
scalar World.node[64].nic.mac1609_4 TooLittleTime 0
scalar World.node[64].nic.mac1609_4 TimesIntoBackoff 187
scalar World.node[64].nic.mac1609_4 SlotsBackoff 1362
scalar World.node[64].nic.mac1609_4 NumInternalContention 0
scalar World.node[64].nic.mac1609_4 totalBusyTime 0.200363
scalar World.node[49].appl.middleware.CaService #cam_sent 664
scalar World.node[49].appl.middleware.ExampleService #full_proofs 0
scalar World.node[49].appl.middleware.ExampleService #half_proofs 4
scalar World.node[49].appl.middleware.ExampleService #failed_proofs 1
scalar World.node[49].appl.middleware.ExampleService #loc_proof_send 38
scalar World.node[49].nic.phy80211p busyTime 0.0040978024691355
scalar World.node[49].nic.mac1609_4 ReceivedUnicastPackets 0
scalar World.node[49].nic.mac1609_4 ReceivedBroadcasts 6545
scalar World.node[49].nic.mac1609_4 SentPackets 702
scalar World.node[49].nic.mac1609_4 SentAcknowledgements 0
scalar World.node[49].nic.mac1609_4 SNIRLostPackets 1675
scalar World.node[49].nic.mac1609_4 RXTXLostPackets 159
scalar World.node[49].nic.mac1609_4 TotalLostPackets 1834
scalar World.node[49].nic.mac1609_4 DroppedPacketsInMac 0
scalar World.node[49].nic.mac1609_4 TooLittleTime 0
scalar World.node[49].nic.mac1609_4 TimesIntoBackoff 709
scalar World.node[49].nic.mac1609_4 SlotsBackoff 5252
scalar World.node[49].nic.mac1609_4 NumInternalContention 0
scalar World.node[49].nic.mac1609_4 totalBusyTime 1.424742269316
scalar World.node[60].appl.middleware.CaService #cam_sent 452
scalar World.node[60].appl.middleware.ExampleService #full_proofs 0
scalar World.node[60].appl.middleware.ExampleService #half_proofs 2
scalar World.node[60].appl.middleware.ExampleService #failed_proofs 0
scalar World.node[60].appl.middleware.ExampleService #loc_proof_send 18
scalar World.node[60].nic.phy80211p busyTime 0.0031888947368421
scalar World.node[60].nic.mac1609_4 ReceivedUnicastPackets 0
scalar World.node[60].nic.mac1609_4 ReceivedBroadcasts 2722
scalar World.node[60].nic.mac1609_4 SentPackets 470
scalar World.node[60].nic.mac1609_4 SentAcknowledgements 0
scalar World.node[60].nic.mac1609_4 SNIRLostPackets 273
scalar World.node[60].nic.mac1609_4 RXTXLostPackets 50
scalar World.node[60].nic.mac1609_4 TotalLostPackets 323
scalar World.node[60].nic.mac1609_4 DroppedPacketsInMac 0
scalar World.node[60].nic.mac1609_4 TooLittleTime 0
scalar World.node[60].nic.mac1609_4 TimesIntoBackoff 471
scalar World.node[60].nic.mac1609_4 SlotsBackoff 3468
scalar World.node[60].nic.mac1609_4 NumInternalContention 0
scalar World.node[60].nic.mac1609_4 totalBusyTime 0.557998096604
scalar World.node[61].appl.middleware.CaService #cam_sent 425
scalar World.node[61].appl.middleware.ExampleService #full_proofs 0
scalar World.node[61].appl.middleware.ExampleService #half_proofs 2
scalar World.node[61].appl.middleware.ExampleService #failed_proofs 0
scalar World.node[61].appl.middleware.ExampleService #loc_proof_send 23
scalar World.node[61].nic.phy80211p busyTime 0.0038210120481927
scalar World.node[61].nic.mac1609_4 ReceivedUnicastPackets 0
scalar World.node[61].nic.mac1609_4 ReceivedBroadcasts 3069
scalar World.node[61].nic.mac1609_4 SentPackets 448
scalar World.node[61].nic.mac1609_4 SentAcknowledgements 0
scalar World.node[61].nic.mac1609_4 SNIRLostPackets 862
scalar World.node[61].nic.mac1609_4 RXTXLostPackets 49
scalar World.node[61].nic.mac1609_4 TotalLostPackets 911
scalar World.node[61].nic.mac1609_4 DroppedPacketsInMac 0
scalar World.node[61].nic.mac1609_4 TooLittleTime 0
scalar World.node[61].nic.mac1609_4 TimesIntoBackoff 450
scalar World.node[61].nic.mac1609_4 SlotsBackoff 3310
scalar World.node[61].nic.mac1609_4 NumInternalContention 0
scalar World.node[61].nic.mac1609_4 totalBusyTime 0.701576001527
scalar World.node[65].appl.middleware.CaService #cam_sent 404
scalar World.node[65].appl.middleware.ExampleService #full_proofs 1
scalar World.node[65].appl.middleware.ExampleService #half_proofs 1
scalar World.node[65].appl.middleware.ExampleService #failed_proofs 0
scalar World.node[65].appl.middleware.ExampleService #loc_proof_send 17
scalar World.node[65].nic.phy80211p busyTime 0.0039004958677685
scalar World.node[65].nic.mac1609_4 ReceivedUnicastPackets 0
scalar World.node[65].nic.mac1609_4 ReceivedBroadcasts 2423
scalar World.node[65].nic.mac1609_4 SentPackets 421
scalar World.node[65].nic.mac1609_4 SentAcknowledgements 0
scalar World.node[65].nic.mac1609_4 SNIRLostPackets 509
scalar World.node[65].nic.mac1609_4 RXTXLostPackets 18
scalar World.node[65].nic.mac1609_4 TotalLostPackets 527
scalar World.node[65].nic.mac1609_4 DroppedPacketsInMac 0
scalar World.node[65].nic.mac1609_4 TooLittleTime 0
scalar World.node[65].nic.mac1609_4 TimesIntoBackoff 422
scalar World.node[65].nic.mac1609_4 SlotsBackoff 3020
scalar World.node[65].nic.mac1609_4 NumInternalContention 0
scalar World.node[65].nic.mac1609_4 totalBusyTime 0.534069
scalar World.node[66].appl.middleware.CaService #cam_sent 351
scalar World.node[66].appl.middleware.ExampleService #full_proofs 0
scalar World.node[66].appl.middleware.ExampleService #half_proofs 2
scalar World.node[66].appl.middleware.ExampleService #failed_proofs 0
scalar World.node[66].appl.middleware.ExampleService #loc_proof_send 19
scalar World.node[66].nic.phy80211p busyTime 0.0042379837398373
scalar World.node[66].nic.mac1609_4 ReceivedUnicastPackets 0
scalar World.node[66].nic.mac1609_4 ReceivedBroadcasts 2842
scalar World.node[66].nic.mac1609_4 SentPackets 370
scalar World.node[66].nic.mac1609_4 SentAcknowledgements 0
scalar World.node[66].nic.mac1609_4 SNIRLostPackets 388
scalar World.node[66].nic.mac1609_4 RXTXLostPackets 53
scalar World.node[66].nic.mac1609_4 TotalLostPackets 441
scalar World.node[66].nic.mac1609_4 DroppedPacketsInMac 0
scalar World.node[66].nic.mac1609_4 TooLittleTime 0
scalar World.node[66].nic.mac1609_4 TimesIntoBackoff 373
scalar World.node[66].nic.mac1609_4 SlotsBackoff 2880
scalar World.node[66].nic.mac1609_4 NumInternalContention 0
scalar World.node[66].nic.mac1609_4 totalBusyTime 0.576978089337
scalar World.node[67].appl.middleware.CaService #cam_sent 280
scalar World.node[67].appl.middleware.ExampleService #full_proofs 0
scalar World.node[67].appl.middleware.ExampleService #half_proofs 1
scalar World.node[67].appl.middleware.ExampleService #failed_proofs 0
scalar World.node[67].appl.middleware.ExampleService #loc_proof_send 17
scalar World.node[67].nic.phy80211p busyTime 0.0043638571428571
scalar World.node[67].nic.mac1609_4 ReceivedUnicastPackets 0
scalar World.node[67].nic.mac1609_4 ReceivedBroadcasts 2225
scalar World.node[67].nic.mac1609_4 SentPackets 297
scalar World.node[67].nic.mac1609_4 SentAcknowledgements 0
scalar World.node[67].nic.mac1609_4 SNIRLostPackets 808
scalar World.node[67].nic.mac1609_4 RXTXLostPackets 46
scalar World.node[67].nic.mac1609_4 TotalLostPackets 854
scalar World.node[67].nic.mac1609_4 DroppedPacketsInMac 0
scalar World.node[67].nic.mac1609_4 TooLittleTime 0
scalar World.node[67].nic.mac1609_4 TimesIntoBackoff 302
scalar World.node[67].nic.mac1609_4 SlotsBackoff 2181
scalar World.node[67].nic.mac1609_4 NumInternalContention 0
scalar World.node[67].nic.mac1609_4 totalBusyTime 0.532185466414
scalar World.node[62].appl.middleware.CaService #cam_sent 637
scalar World.node[62].appl.middleware.ExampleService #full_proofs 0
scalar World.node[62].appl.middleware.ExampleService #half_proofs 4
scalar World.node[62].appl.middleware.ExampleService #failed_proofs 0
scalar World.node[62].appl.middleware.ExampleService #loc_proof_send 31
scalar World.node[62].nic.phy80211p busyTime 0.0039935384615384
scalar World.node[62].nic.mac1609_4 ReceivedUnicastPackets 0
scalar World.node[62].nic.mac1609_4 ReceivedBroadcasts 4640
scalar World.node[62].nic.mac1609_4 SentPackets 668
scalar World.node[62].nic.mac1609_4 SentAcknowledgements 0
scalar World.node[62].nic.mac1609_4 SNIRLostPackets 499
scalar World.node[62].nic.mac1609_4 RXTXLostPackets 78
scalar World.node[62].nic.mac1609_4 TotalLostPackets 577
scalar World.node[62].nic.mac1609_4 DroppedPacketsInMac 0
scalar World.node[62].nic.mac1609_4 TooLittleTime 0
scalar World.node[62].nic.mac1609_4 TimesIntoBackoff 675
scalar World.node[62].nic.mac1609_4 SlotsBackoff 5056
scalar World.node[62].nic.mac1609_4 NumInternalContention 0
scalar World.node[62].nic.mac1609_4 totalBusyTime 0.931948443012
scalar World.node[75].appl.middleware.CaService #cam_sent 158
scalar World.node[75].appl.middleware.ExampleService #full_proofs 0
scalar World.node[75].appl.middleware.ExampleService #half_proofs 0
scalar World.node[75].appl.middleware.ExampleService #failed_proofs 0
scalar World.node[75].appl.middleware.ExampleService #loc_proof_send 6
scalar World.node[75].nic.phy80211p busyTime 0.0048975319148936
scalar World.node[75].nic.mac1609_4 ReceivedUnicastPackets 0
scalar World.node[75].nic.mac1609_4 ReceivedBroadcasts 1085
scalar World.node[75].nic.mac1609_4 SentPackets 164
scalar World.node[75].nic.mac1609_4 SentAcknowledgements 0
scalar World.node[75].nic.mac1609_4 SNIRLostPackets 348
scalar World.node[75].nic.mac1609_4 RXTXLostPackets 9
scalar World.node[75].nic.mac1609_4 TotalLostPackets 357
scalar World.node[75].nic.mac1609_4 DroppedPacketsInMac 0
scalar World.node[75].nic.mac1609_4 TooLittleTime 0
scalar World.node[75].nic.mac1609_4 TimesIntoBackoff 164
scalar World.node[75].nic.mac1609_4 SlotsBackoff 1192
scalar World.node[75].nic.mac1609_4 NumInternalContention 0
scalar World.node[75].nic.mac1609_4 totalBusyTime 0.252532
scalar World.node[63].appl.middleware.CaService #cam_sent 523
scalar World.node[63].appl.middleware.ExampleService #full_proofs 0
scalar World.node[63].appl.middleware.ExampleService #half_proofs 4
scalar World.node[63].appl.middleware.ExampleService #failed_proofs 0
scalar World.node[63].appl.middleware.ExampleService #loc_proof_send 33
scalar World.node[63].nic.phy80211p busyTime 0.0042435980861244
scalar World.node[63].nic.mac1609_4 ReceivedUnicastPackets 0
scalar World.node[63].nic.mac1609_4 ReceivedBroadcasts 5008
scalar World.node[63].nic.mac1609_4 SentPackets 556
scalar World.node[63].nic.mac1609_4 SentAcknowledgements 0
scalar World.node[63].nic.mac1609_4 SNIRLostPackets 492
scalar World.node[63].nic.mac1609_4 RXTXLostPackets 72
scalar World.node[63].nic.mac1609_4 TotalLostPackets 564
[...]
scalar World.node[222].nic.mac1609_4 NumInternalContention 0
scalar World.node[222].nic.mac1609_4 totalBusyTime 0.917171153109
scalar World.node[224].appl.middleware.CaService #cam_sent 469
scalar World.node[224].appl.middleware.ExampleService #full_proofs 0
scalar World.node[224].appl.middleware.ExampleService #half_proofs 3
scalar World.node[224].appl.middleware.ExampleService #failed_proofs 0
scalar World.node[224].appl.middleware.ExampleService #loc_proof_send 28
scalar World.node[224].nic.phy80211p busyTime 0.0044954936708861
scalar World.node[224].nic.mac1609_4 ReceivedUnicastPackets 0
scalar World.node[224].nic.mac1609_4 ReceivedBroadcasts 3790
scalar World.node[224].nic.mac1609_4 SentPackets 497
scalar World.node[224].nic.mac1609_4 SentAcknowledgements 0
scalar World.node[224].nic.mac1609_4 SNIRLostPackets 626
scalar World.node[224].nic.mac1609_4 RXTXLostPackets 74
scalar World.node[224].nic.mac1609_4 TotalLostPackets 700
scalar World.node[224].nic.mac1609_4 DroppedPacketsInMac 0
scalar World.node[224].nic.mac1609_4 TooLittleTime 0
scalar World.node[224].nic.mac1609_4 TimesIntoBackoff 506
scalar World.node[224].nic.mac1609_4 SlotsBackoff 3887
scalar World.node[224].nic.mac1609_4 NumInternalContention 0
scalar World.node[224].nic.mac1609_4 totalBusyTime 0.781921144068
scalar World.node[232].appl.middleware.CaService #cam_sent 138
scalar World.node[232].appl.middleware.ExampleService #full_proofs 0
scalar World.node[232].appl.middleware.ExampleService #half_proofs 1
scalar World.node[232].appl.middleware.ExampleService #failed_proofs 0
scalar World.node[232].appl.middleware.ExampleService #loc_proof_send 5
scalar World.node[232].nic.phy80211p busyTime 0.0050963902439024
scalar World.node[232].nic.mac1609_4 ReceivedUnicastPackets 0
scalar World.node[232].nic.mac1609_4 ReceivedBroadcasts 852
scalar World.node[232].nic.mac1609_4 SentPackets 143
scalar World.node[232].nic.mac1609_4 SentAcknowledgements 0
scalar World.node[232].nic.mac1609_4 SNIRLostPackets 449
scalar World.node[232].nic.mac1609_4 RXTXLostPackets 6
scalar World.node[232].nic.mac1609_4 TotalLostPackets 455
scalar World.node[232].nic.mac1609_4 DroppedPacketsInMac 0
scalar World.node[232].nic.mac1609_4 TooLittleTime 0
scalar World.node[232].nic.mac1609_4 TimesIntoBackoff 143
scalar World.node[232].nic.mac1609_4 SlotsBackoff 1046
scalar World.node[232].nic.mac1609_4 NumInternalContention 0
scalar World.node[232].nic.mac1609_4 totalBusyTime 0.228767
scalar World.node[230].appl.middleware.CaService #cam_sent 278
scalar World.node[230].appl.middleware.ExampleService #full_proofs 0
scalar World.node[230].appl.middleware.ExampleService #half_proofs 2
scalar World.node[230].appl.middleware.ExampleService #failed_proofs 0
scalar World.node[230].appl.middleware.ExampleService #loc_proof_send 16
scalar World.node[230].nic.phy80211p busyTime 0.0049691566265059
scalar World.node[230].nic.mac1609_4 ReceivedUnicastPackets 0
scalar World.node[230].nic.mac1609_4 ReceivedBroadcasts 2206
scalar World.node[230].nic.mac1609_4 SentPackets 294
scalar World.node[230].nic.mac1609_4 SentAcknowledgements 0
scalar World.node[230].nic.mac1609_4 SNIRLostPackets 364
scalar World.node[230].nic.mac1609_4 RXTXLostPackets 33
scalar World.node[230].nic.mac1609_4 TotalLostPackets 397
scalar World.node[230].nic.mac1609_4 DroppedPacketsInMac 0
scalar World.node[230].nic.mac1609_4 TooLittleTime 0
scalar World.node[230].nic.mac1609_4 TimesIntoBackoff 295
scalar World.node[230].nic.mac1609_4 SlotsBackoff 2253
scalar World.node[230].nic.mac1609_4 NumInternalContention 0
scalar World.node[230].nic.mac1609_4 totalBusyTime 0.453718204222
scalar World.node[227].appl.middleware.CaService #cam_sent 371
scalar World.node[227].appl.middleware.ExampleService #full_proofs 0
scalar World.node[227].appl.middleware.ExampleService #half_proofs 2
scalar World.node[227].appl.middleware.ExampleService #failed_proofs 0
scalar World.node[227].appl.middleware.ExampleService #loc_proof_send 24
scalar World.node[227].nic.phy80211p busyTime 0.0047638805970149
scalar World.node[227].nic.mac1609_4 ReceivedUnicastPackets 0
scalar World.node[227].nic.mac1609_4 ReceivedBroadcasts 3489
scalar World.node[227].nic.mac1609_4 SentPackets 395
scalar World.node[227].nic.mac1609_4 SentAcknowledgements 0
scalar World.node[227].nic.mac1609_4 SNIRLostPackets 475
scalar World.node[227].nic.mac1609_4 RXTXLostPackets 63
scalar World.node[227].nic.mac1609_4 TotalLostPackets 538
scalar World.node[227].nic.mac1609_4 DroppedPacketsInMac 0
scalar World.node[227].nic.mac1609_4 TooLittleTime 0
scalar World.node[227].nic.mac1609_4 TimesIntoBackoff 399
scalar World.node[227].nic.mac1609_4 SlotsBackoff 2870
scalar World.node[227].nic.mac1609_4 NumInternalContention 0
scalar World.node[227].nic.mac1609_4 totalBusyTime 0.694963044376
scalar World.node[226].appl.middleware.CaService #cam_sent 384
scalar World.node[226].appl.middleware.ExampleService #full_proofs 1
scalar World.node[226].appl.middleware.ExampleService #half_proofs 2
scalar World.node[226].appl.middleware.ExampleService #failed_proofs 0
scalar World.node[226].appl.middleware.ExampleService #loc_proof_send 21
scalar World.node[226].nic.phy80211p busyTime 0.0046309866666666
scalar World.node[226].nic.mac1609_4 ReceivedUnicastPackets 0
scalar World.node[226].nic.mac1609_4 ReceivedBroadcasts 3212
scalar World.node[226].nic.mac1609_4 SentPackets 405
scalar World.node[226].nic.mac1609_4 SentAcknowledgements 0
scalar World.node[226].nic.mac1609_4 SNIRLostPackets 1094
scalar World.node[226].nic.mac1609_4 RXTXLostPackets 80
scalar World.node[226].nic.mac1609_4 TotalLostPackets 1174
scalar World.node[226].nic.mac1609_4 DroppedPacketsInMac 0
scalar World.node[226].nic.mac1609_4 TooLittleTime 0
scalar World.node[226].nic.mac1609_4 TimesIntoBackoff 409
scalar World.node[226].nic.mac1609_4 SlotsBackoff 3043
scalar World.node[226].nic.mac1609_4 NumInternalContention 0
scalar World.node[226].nic.mac1609_4 totalBusyTime 0.75434102885
scalar World.node[228].appl.middleware.CaService #cam_sent 336
scalar World.node[228].appl.middleware.ExampleService #full_proofs 0
scalar World.node[228].appl.middleware.ExampleService #half_proofs 2
scalar World.node[228].appl.middleware.ExampleService #failed_proofs 0
scalar World.node[228].appl.middleware.ExampleService #loc_proof_send 20
scalar World.node[228].nic.phy80211p busyTime 0.0046096129032257
scalar World.node[228].nic.mac1609_4 ReceivedUnicastPackets 0
scalar World.node[228].nic.mac1609_4 ReceivedBroadcasts 2554
scalar World.node[228].nic.mac1609_4 SentPackets 356
scalar World.node[228].nic.mac1609_4 SentAcknowledgements 0
scalar World.node[228].nic.mac1609_4 SNIRLostPackets 1000
scalar World.node[228].nic.mac1609_4 RXTXLostPackets 60
scalar World.node[228].nic.mac1609_4 TotalLostPackets 1060
scalar World.node[228].nic.mac1609_4 DroppedPacketsInMac 0
scalar World.node[228].nic.mac1609_4 TooLittleTime 0
scalar World.node[228].nic.mac1609_4 TimesIntoBackoff 358
scalar World.node[228].nic.mac1609_4 SlotsBackoff 2690
scalar World.node[228].nic.mac1609_4 NumInternalContention 0
scalar World.node[228].nic.mac1609_4 totalBusyTime 0.622428
scalar World.node[225].appl.middleware.CaService #cam_sent 472
scalar World.node[225].appl.middleware.ExampleService #full_proofs 0
scalar World.node[225].appl.middleware.ExampleService #half_proofs 3
scalar World.node[225].appl.middleware.ExampleService #failed_proofs 0
scalar World.node[225].appl.middleware.ExampleService #loc_proof_send 30
scalar World.node[225].nic.phy80211p busyTime 0.0043777528089888
scalar World.node[225].nic.mac1609_4 ReceivedUnicastPackets 0
scalar World.node[225].nic.mac1609_4 ReceivedBroadcasts 4502
scalar World.node[225].nic.mac1609_4 SentPackets 502
scalar World.node[225].nic.mac1609_4 SentAcknowledgements 0
scalar World.node[225].nic.mac1609_4 SNIRLostPackets 330
scalar World.node[225].nic.mac1609_4 RXTXLostPackets 94
scalar World.node[225].nic.mac1609_4 TotalLostPackets 424
scalar World.node[225].nic.mac1609_4 DroppedPacketsInMac 0
scalar World.node[225].nic.mac1609_4 TooLittleTime 0
scalar World.node[225].nic.mac1609_4 TimesIntoBackoff 509
scalar World.node[225].nic.mac1609_4 SlotsBackoff 3718
scalar World.node[225].nic.mac1609_4 NumInternalContention 0
scalar World.node[225].nic.mac1609_4 totalBusyTime 0.853990163288
scalar World.node[234].appl.middleware.CaService #cam_sent 296
scalar World.node[234].appl.middleware.ExampleService #full_proofs 0
scalar World.node[234].appl.middleware.ExampleService #half_proofs 2
scalar World.node[234].appl.middleware.ExampleService #failed_proofs 0
scalar World.node[234].appl.middleware.ExampleService #loc_proof_send 12
scalar World.node[234].nic.phy80211p busyTime 0.0034982268041237
scalar World.node[234].nic.mac1609_4 ReceivedUnicastPackets 0
scalar World.node[234].nic.mac1609_4 ReceivedBroadcasts 1732
scalar World.node[234].nic.mac1609_4 SentPackets 308
scalar World.node[234].nic.mac1609_4 SentAcknowledgements 0
scalar World.node[234].nic.mac1609_4 SNIRLostPackets 369
scalar World.node[234].nic.mac1609_4 RXTXLostPackets 17
scalar World.node[234].nic.mac1609_4 TotalLostPackets 386
scalar World.node[234].nic.mac1609_4 DroppedPacketsInMac 0
scalar World.node[234].nic.mac1609_4 TooLittleTime 0
scalar World.node[234].nic.mac1609_4 TimesIntoBackoff 313
scalar World.node[234].nic.mac1609_4 SlotsBackoff 2512
scalar World.node[234].nic.mac1609_4 NumInternalContention 0
scalar World.node[234].nic.mac1609_4 totalBusyTime 0.38706014159
scalar World.node[237].appl.middleware.CaService #cam_sent 144
scalar World.node[237].appl.middleware.ExampleService #full_proofs 0
scalar World.node[237].appl.middleware.ExampleService #half_proofs 0
scalar World.node[237].appl.middleware.ExampleService #failed_proofs 1
scalar World.node[237].appl.middleware.ExampleService #loc_proof_send 5
scalar World.node[237].nic.phy80211p busyTime 0.0032587906976744
scalar World.node[237].nic.mac1609_4 ReceivedUnicastPackets 0
scalar World.node[237].nic.mac1609_4 ReceivedBroadcasts 470
scalar World.node[237].nic.mac1609_4 SentPackets 149
scalar World.node[237].nic.mac1609_4 SentAcknowledgements 0
scalar World.node[237].nic.mac1609_4 SNIRLostPackets 402
scalar World.node[237].nic.mac1609_4 RXTXLostPackets 4
scalar World.node[237].nic.mac1609_4 TotalLostPackets 406
scalar World.node[237].nic.mac1609_4 DroppedPacketsInMac 0
scalar World.node[237].nic.mac1609_4 TooLittleTime 0
scalar World.node[237].nic.mac1609_4 TimesIntoBackoff 149
scalar World.node[237].nic.mac1609_4 SlotsBackoff 1232
scalar World.node[237].nic.mac1609_4 NumInternalContention 0
scalar World.node[237].nic.mac1609_4 totalBusyTime 0.163093
scalar World.node[231].appl.middleware.CaService #cam_sent 388
scalar World.node[231].appl.middleware.ExampleService #full_proofs 0
scalar World.node[231].appl.middleware.ExampleService #half_proofs 3
scalar World.node[231].appl.middleware.ExampleService #failed_proofs 0
scalar World.node[231].appl.middleware.ExampleService #loc_proof_send 20
scalar World.node[231].nic.phy80211p busyTime 0.0038298523489932
scalar World.node[231].nic.mac1609_4 ReceivedUnicastPackets 0
scalar World.node[231].nic.mac1609_4 ReceivedBroadcasts 3353
scalar World.node[231].nic.mac1609_4 SentPackets 408
scalar World.node[231].nic.mac1609_4 SentAcknowledgements 0
scalar World.node[231].nic.mac1609_4 SNIRLostPackets 190
scalar World.node[231].nic.mac1609_4 RXTXLostPackets 24
scalar World.node[231].nic.mac1609_4 TotalLostPackets 214
scalar World.node[231].nic.mac1609_4 DroppedPacketsInMac 0
scalar World.node[231].nic.mac1609_4 TooLittleTime 0
scalar World.node[231].nic.mac1609_4 TimesIntoBackoff 410
scalar World.node[231].nic.mac1609_4 SlotsBackoff 3089
scalar World.node[231].nic.mac1609_4 NumInternalContention 0
scalar World.node[231].nic.mac1609_4 totalBusyTime 0.629384
scalar World.node[235].appl.middleware.CaService #cam_sent 377
scalar World.node[235].appl.middleware.ExampleService #full_proofs 0
scalar World.node[235].appl.middleware.ExampleService #half_proofs 1
scalar World.node[235].appl.middleware.ExampleService #failed_proofs 0
scalar World.node[235].appl.middleware.ExampleService #loc_proof_send 15
scalar World.node[235].nic.phy80211p busyTime 0.0031474957983193
scalar World.node[235].nic.mac1609_4 ReceivedUnicastPackets 0
scalar World.node[235].nic.mac1609_4 ReceivedBroadcasts 2242
scalar World.node[235].nic.mac1609_4 SentPackets 392
scalar World.node[235].nic.mac1609_4 SentAcknowledgements 0
scalar World.node[235].nic.mac1609_4 SNIRLostPackets 75
scalar World.node[235].nic.mac1609_4 RXTXLostPackets 15
scalar World.node[235].nic.mac1609_4 TotalLostPackets 90
scalar World.node[235].nic.mac1609_4 DroppedPacketsInMac 0
scalar World.node[235].nic.mac1609_4 TooLittleTime 0
scalar World.node[235].nic.mac1609_4 TimesIntoBackoff 393
scalar World.node[235].nic.mac1609_4 SlotsBackoff 2868
scalar World.node[235].nic.mac1609_4 NumInternalContention 0
scalar World.node[235].nic.mac1609_4 totalBusyTime 0.435552226733
scalar World.node[229].appl.middleware.CaService #cam_sent 604
scalar World.node[229].appl.middleware.ExampleService #full_proofs 0
scalar World.node[229].appl.middleware.ExampleService #half_proofs 4
scalar World.node[229].appl.middleware.ExampleService #failed_proofs 0
scalar World.node[229].appl.middleware.ExampleService #loc_proof_send 34
scalar World.node[229].nic.phy80211p busyTime 0.0038763317073171
scalar World.node[229].nic.mac1609_4 ReceivedUnicastPackets 0
scalar World.node[229].nic.mac1609_4 ReceivedBroadcasts 4609
scalar World.node[229].nic.mac1609_4 SentPackets 638
scalar World.node[229].nic.mac1609_4 SentAcknowledgements 0
scalar World.node[229].nic.mac1609_4 SNIRLostPackets 321
scalar World.node[229].nic.mac1609_4 RXTXLostPackets 80
scalar World.node[229].nic.mac1609_4 TotalLostPackets 401
scalar World.node[229].nic.mac1609_4 DroppedPacketsInMac 0
scalar World.node[229].nic.mac1609_4 TooLittleTime 0
scalar World.node[229].nic.mac1609_4 TimesIntoBackoff 648
scalar World.node[229].nic.mac1609_4 SlotsBackoff 4706
scalar World.node[229].nic.mac1609_4 NumInternalContention 0
scalar World.node[229].nic.mac1609_4 totalBusyTime 0.890446517365
scalar World.node[238].appl.middleware.CaService #cam_sent 409
scalar World.node[238].appl.middleware.ExampleService #full_proofs 1
scalar World.node[238].appl.middleware.ExampleService #half_proofs 2
scalar World.node[238].appl.middleware.ExampleService #failed_proofs 0
scalar World.node[238].appl.middleware.ExampleService #loc_proof_send 14
scalar World.node[238].nic.phy80211p busyTime 0.0020358356164383
scalar World.node[238].nic.mac1609_4 ReceivedUnicastPackets 0
scalar World.node[238].nic.mac1609_4 ReceivedBroadcasts 1701
scalar World.node[238].nic.mac1609_4 SentPackets 423
scalar World.node[238].nic.mac1609_4 SentAcknowledgements 0
scalar World.node[238].nic.mac1609_4 SNIRLostPackets 133
scalar World.node[238].nic.mac1609_4 RXTXLostPackets 15
scalar World.node[238].nic.mac1609_4 TotalLostPackets 148
scalar World.node[238].nic.mac1609_4 DroppedPacketsInMac 0
scalar World.node[238].nic.mac1609_4 TooLittleTime 0
scalar World.node[238].nic.mac1609_4 TimesIntoBackoff 425
scalar World.node[238].nic.mac1609_4 SlotsBackoff 3067
scalar World.node[238].nic.mac1609_4 NumInternalContention 0
scalar World.node[238].nic.mac1609_4 totalBusyTime 0.364343
scalar World.node[233].appl.middleware.CaService #cam_sent 617
scalar World.node[233].appl.middleware.ExampleService #full_proofs 0
scalar World.node[233].appl.middleware.ExampleService #half_proofs 4
scalar World.node[233].appl.middleware.ExampleService #failed_proofs 0
scalar World.node[233].appl.middleware.ExampleService #loc_proof_send 27
scalar World.node[233].nic.phy80211p busyTime 0.002701344680851
scalar World.node[233].nic.mac1609_4 ReceivedUnicastPackets 0
scalar World.node[233].nic.mac1609_4 ReceivedBroadcasts 3491
scalar World.node[233].nic.mac1609_4 SentPackets 644
scalar World.node[233].nic.mac1609_4 SentAcknowledgements 0
scalar World.node[233].nic.mac1609_4 SNIRLostPackets 439
scalar World.node[233].nic.mac1609_4 RXTXLostPackets 35
scalar World.node[233].nic.mac1609_4 TotalLostPackets 474
scalar World.node[233].nic.mac1609_4 DroppedPacketsInMac 0
scalar World.node[233].nic.mac1609_4 TooLittleTime 0
scalar World.node[233].nic.mac1609_4 TimesIntoBackoff 649
scalar World.node[233].nic.mac1609_4 SlotsBackoff 4863
scalar World.node[233].nic.mac1609_4 NumInternalContention 0
scalar World.node[233].nic.mac1609_4 totalBusyTime 0.733788070649
scalar World.node[236].appl.middleware.CaService #cam_sent 404
scalar World.node[236].appl.middleware.ExampleService #full_proofs 1
scalar World.node[236].appl.middleware.ExampleService #half_proofs 1
scalar World.node[236].appl.middleware.ExampleService #failed_proofs 1
scalar World.node[236].appl.middleware.ExampleService #loc_proof_send 19
scalar World.node[236].nic.phy80211p busyTime 0.0021855111111111
scalar World.node[236].nic.mac1609_4 ReceivedUnicastPackets 0
scalar World.node[236].nic.mac1609_4 ReceivedBroadcasts 2302
scalar World.node[236].nic.mac1609_4 SentPackets 423
scalar World.node[236].nic.mac1609_4 SentAcknowledgements 0
scalar World.node[236].nic.mac1609_4 SNIRLostPackets 123
scalar World.node[236].nic.mac1609_4 RXTXLostPackets 36
scalar World.node[236].nic.mac1609_4 TotalLostPackets 159
scalar World.node[236].nic.mac1609_4 DroppedPacketsInMac 0
scalar World.node[236].nic.mac1609_4 TooLittleTime 0
scalar World.node[236].nic.mac1609_4 TimesIntoBackoff 428
scalar World.node[236].nic.mac1609_4 SlotsBackoff 3098
scalar World.node[236].nic.mac1609_4 NumInternalContention 0
scalar World.node[236].nic.mac1609_4 totalBusyTime 0.461607
scalar World.node[239].appl.middleware.CaService #cam_sent 412
scalar World.node[239].appl.middleware.ExampleService #full_proofs 0
scalar World.node[239].appl.middleware.ExampleService #half_proofs 2
scalar World.node[239].appl.middleware.ExampleService #failed_proofs 0
scalar World.node[239].appl.middleware.ExampleService #loc_proof_send 14
scalar World.node[239].nic.phy80211p busyTime 0.001559488372093
scalar World.node[239].nic.mac1609_4 ReceivedUnicastPackets 0
scalar World.node[239].nic.mac1609_4 ReceivedBroadcasts 1524
scalar World.node[239].nic.mac1609_4 SentPackets 426
scalar World.node[239].nic.mac1609_4 SentAcknowledgements 0
scalar World.node[239].nic.mac1609_4 SNIRLostPackets 131
scalar World.node[239].nic.mac1609_4 RXTXLostPackets 18
scalar World.node[239].nic.mac1609_4 TotalLostPackets 149
scalar World.node[239].nic.mac1609_4 DroppedPacketsInMac 0
scalar World.node[239].nic.mac1609_4 TooLittleTime 0
scalar World.node[239].nic.mac1609_4 TimesIntoBackoff 430
scalar World.node[239].nic.mac1609_4 SlotsBackoff 3165
scalar World.node[239].nic.mac1609_4 NumInternalContention 0
scalar World.node[239].nic.mac1609_4 totalBusyTime 0.336474029211
scalar World.node[240].appl.middleware.CaService #cam_sent 436
scalar World.node[240].appl.middleware.ExampleService #full_proofs 1
scalar World.node[240].appl.middleware.ExampleService #half_proofs 1
scalar World.node[240].appl.middleware.ExampleService #failed_proofs 1
scalar World.node[240].appl.middleware.ExampleService #loc_proof_send 12
scalar World.node[240].nic.phy80211p busyTime 0.0013274251497006
scalar World.node[240].nic.mac1609_4 ReceivedUnicastPackets 0
scalar World.node[240].nic.mac1609_4 ReceivedBroadcasts 1266
scalar World.node[240].nic.mac1609_4 SentPackets 448
scalar World.node[240].nic.mac1609_4 SentAcknowledgements 0
scalar World.node[240].nic.mac1609_4 SNIRLostPackets 100
scalar World.node[240].nic.mac1609_4 RXTXLostPackets 14
scalar World.node[240].nic.mac1609_4 TotalLostPackets 114
scalar World.node[240].nic.mac1609_4 DroppedPacketsInMac 0
scalar World.node[240].nic.mac1609_4 TooLittleTime 0
scalar World.node[240].nic.mac1609_4 TimesIntoBackoff 450
scalar World.node[240].nic.mac1609_4 SlotsBackoff 3258
scalar World.node[240].nic.mac1609_4 NumInternalContention 0
scalar World.node[240].nic.mac1609_4 totalBusyTime 0.293424

