version 2
run No_Obstacles_Night-2-20191117-11:10:22-4847
attr configname No_Obstacles_Night
attr datetime 20191117-11:10:22
attr experiment No_Obstacles_Night
attr inifile omnetpp.ini
attr iterationvars $0=80
attr iterationvarsf 80-
attr measurement $0=80
attr network artery.veins.World
attr processid 4847
attr repetition 0
attr replication #0
attr resultdir results
attr runnumber 2
attr seedset 2
param *.traci.launcher.sumocfg "\"No_Obstacles_Night/run.sumo.cfg\""
param *.node[*].nic.mac1609_4.txPower 20mW
param *.node[*].nic.phy80211p.decider "xmldoc(\"config.xml\")"
param *.node[*].nic.phy80211p.analogueModels "xmldoc(\"config.xml\")"
param *.node[*].applType "\"artery.veins.ApplicationLayer\""
param *.node[*].appl.middleware.updateInterval 0.1s
param *.node[*].appl.middleware.datetime "\"2013-06-01 12:35:00\""
param *.node[*].appl.middleware.services "xmldoc(\"services.xml\")"
param *.node[*].appl.middleware.ExampleService.DecisionLogic 80
param *.node[*].appl.middleware.ExampleService.NeighboringWindow 60
param *.traci.core.version -1
param *.traci.launcher.typename "\"PosixLauncher\""
param *.playgroundSizeX 4000m
param *.playgroundSizeY 4000m
param *.playgroundSizeZ 50m
param *.connectionManager.maxInterfDist 1500m
param *.connectionManager.sendDirect true
param *.connectionManager.coreDebug false

scalar World.node[5].appl.middleware.CaService #cam_sent 158
scalar World.node[5].appl.middleware.ExampleService #full_proofs 0
scalar World.node[5].appl.middleware.ExampleService #half_proofs 1
scalar World.node[5].appl.middleware.ExampleService #failed_proofs 0
scalar World.node[5].appl.middleware.ExampleService #loc_proof_send 6
scalar World.node[5].nic.phy80211p busyTime 0.0028784680851064
scalar World.node[5].nic.mac1609_4 ReceivedUnicastPackets 0
scalar World.node[5].nic.mac1609_4 ReceivedBroadcasts 760
scalar World.node[5].nic.mac1609_4 SentPackets 164
scalar World.node[5].nic.mac1609_4 SentAcknowledgements 0
scalar World.node[5].nic.mac1609_4 SNIRLostPackets 77
scalar World.node[5].nic.mac1609_4 RXTXLostPackets 3
scalar World.node[5].nic.mac1609_4 TotalLostPackets 80
scalar World.node[5].nic.mac1609_4 DroppedPacketsInMac 0
scalar World.node[5].nic.mac1609_4 TooLittleTime 0
scalar World.node[5].nic.mac1609_4 TimesIntoBackoff 166
scalar World.node[5].nic.mac1609_4 SlotsBackoff 1317
scalar World.node[5].nic.mac1609_4 NumInternalContention 0
scalar World.node[5].nic.mac1609_4 totalBusyTime 0.160932
scalar World.node[3].appl.middleware.CaService #cam_sent 310
scalar World.node[3].appl.middleware.ExampleService #full_proofs 0
scalar World.node[3].appl.middleware.ExampleService #half_proofs 2
scalar World.node[3].appl.middleware.ExampleService #failed_proofs 0
scalar World.node[3].appl.middleware.ExampleService #loc_proof_send 15
scalar World.node[3].nic.phy80211p busyTime 0.00296768
scalar World.node[3].nic.mac1609_4 ReceivedUnicastPackets 0
scalar World.node[3].nic.mac1609_4 ReceivedBroadcasts 2244
scalar World.node[3].nic.mac1609_4 SentPackets 325
scalar World.node[3].nic.mac1609_4 SentAcknowledgements 0
scalar World.node[3].nic.mac1609_4 SNIRLostPackets 47
scalar World.node[3].nic.mac1609_4 RXTXLostPackets 32
scalar World.node[3].nic.mac1609_4 TotalLostPackets 79
scalar World.node[3].nic.mac1609_4 DroppedPacketsInMac 0
scalar World.node[3].nic.mac1609_4 TooLittleTime 0
scalar World.node[3].nic.mac1609_4 TimesIntoBackoff 326
scalar World.node[3].nic.mac1609_4 SlotsBackoff 2491
scalar World.node[3].nic.mac1609_4 NumInternalContention 0
scalar World.node[3].nic.mac1609_4 totalBusyTime 0.422197
scalar World.node[4].appl.middleware.CaService #cam_sent 355
scalar World.node[4].appl.middleware.ExampleService #full_proofs 0
scalar World.node[4].appl.middleware.ExampleService #half_proofs 2
scalar World.node[4].appl.middleware.ExampleService #failed_proofs 0
scalar World.node[4].appl.middleware.ExampleService #loc_proof_send 15
scalar World.node[4].nic.phy80211p busyTime 0.0030173793103448
scalar World.node[4].nic.mac1609_4 ReceivedUnicastPackets 0
scalar World.node[4].nic.mac1609_4 ReceivedBroadcasts 1930
scalar World.node[4].nic.mac1609_4 SentPackets 370
scalar World.node[4].nic.mac1609_4 SentAcknowledgements 0
scalar World.node[4].nic.mac1609_4 SNIRLostPackets 232
scalar World.node[4].nic.mac1609_4 RXTXLostPackets 31
scalar World.node[4].nic.mac1609_4 TotalLostPackets 263
scalar World.node[4].nic.mac1609_4 DroppedPacketsInMac 0
scalar World.node[4].nic.mac1609_4 TooLittleTime 0
scalar World.node[4].nic.mac1609_4 TimesIntoBackoff 375
scalar World.node[4].nic.mac1609_4 SlotsBackoff 2904
scalar World.node[4].nic.mac1609_4 NumInternalContention 0
scalar World.node[4].nic.mac1609_4 totalBusyTime 0.407842
scalar World.node[7].appl.middleware.CaService #cam_sent 268
scalar World.node[7].appl.middleware.ExampleService #full_proofs 1
scalar World.node[7].appl.middleware.ExampleService #half_proofs 1
scalar World.node[7].appl.middleware.ExampleService #failed_proofs 0
scalar World.node[7].appl.middleware.ExampleService #loc_proof_send 10
scalar World.node[7].nic.phy80211p busyTime 0.0033767804878048
scalar World.node[7].nic.mac1609_4 ReceivedUnicastPackets 0
scalar World.node[7].nic.mac1609_4 ReceivedBroadcasts 1668
scalar World.node[7].nic.mac1609_4 SentPackets 278
scalar World.node[7].nic.mac1609_4 SentAcknowledgements 0
scalar World.node[7].nic.mac1609_4 SNIRLostPackets 45
scalar World.node[7].nic.mac1609_4 RXTXLostPackets 21
scalar World.node[7].nic.mac1609_4 TotalLostPackets 66
scalar World.node[7].nic.mac1609_4 DroppedPacketsInMac 0
scalar World.node[7].nic.mac1609_4 TooLittleTime 0
scalar World.node[7].nic.mac1609_4 TimesIntoBackoff 280
scalar World.node[7].nic.mac1609_4 SlotsBackoff 2181
scalar World.node[7].nic.mac1609_4 NumInternalContention 0
scalar World.node[7].nic.mac1609_4 totalBusyTime 0.320046
scalar World.node[1].appl.middleware.CaService #cam_sent 547
scalar World.node[1].appl.middleware.ExampleService #full_proofs 0
scalar World.node[1].appl.middleware.ExampleService #half_proofs 2
scalar World.node[1].appl.middleware.ExampleService #failed_proofs 0
scalar World.node[1].appl.middleware.ExampleService #loc_proof_send 19
scalar World.node[1].nic.phy80211p busyTime 0.0025845652173913
scalar World.node[1].nic.mac1609_4 ReceivedUnicastPackets 0
scalar World.node[1].nic.mac1609_4 ReceivedBroadcasts 2813
scalar World.node[1].nic.mac1609_4 SentPackets 566
scalar World.node[1].nic.mac1609_4 SentAcknowledgements 0
scalar World.node[1].nic.mac1609_4 SNIRLostPackets 124
scalar World.node[1].nic.mac1609_4 RXTXLostPackets 44
scalar World.node[1].nic.mac1609_4 TotalLostPackets 168
scalar World.node[1].nic.mac1609_4 DroppedPacketsInMac 0
scalar World.node[1].nic.mac1609_4 TooLittleTime 0
scalar World.node[1].nic.mac1609_4 TimesIntoBackoff 568
scalar World.node[1].nic.mac1609_4 SlotsBackoff 4177
scalar World.node[1].nic.mac1609_4 NumInternalContention 0
scalar World.node[1].nic.mac1609_4 totalBusyTime 0.564358068727
scalar World.node[2].appl.middleware.CaService #cam_sent 581
scalar World.node[2].appl.middleware.ExampleService #full_proofs 0
scalar World.node[2].appl.middleware.ExampleService #half_proofs 3
scalar World.node[2].appl.middleware.ExampleService #failed_proofs 1
scalar World.node[2].appl.middleware.ExampleService #loc_proof_send 27
scalar World.node[2].nic.phy80211p busyTime 0.0029243302752293
scalar World.node[2].nic.mac1609_4 ReceivedUnicastPackets 0
scalar World.node[2].nic.mac1609_4 ReceivedBroadcasts 3844
scalar World.node[2].nic.mac1609_4 SentPackets 608
scalar World.node[2].nic.mac1609_4 SentAcknowledgements 0
scalar World.node[2].nic.mac1609_4 SNIRLostPackets 94
scalar World.node[2].nic.mac1609_4 RXTXLostPackets 59
scalar World.node[2].nic.mac1609_4 TotalLostPackets 153
scalar World.node[2].nic.mac1609_4 DroppedPacketsInMac 0
scalar World.node[2].nic.mac1609_4 TooLittleTime 0
scalar World.node[2].nic.mac1609_4 TimesIntoBackoff 611
scalar World.node[2].nic.mac1609_4 SlotsBackoff 4660
scalar World.node[2].nic.mac1609_4 NumInternalContention 0
scalar World.node[2].nic.mac1609_4 totalBusyTime 0.731688246038
scalar World.node[6].appl.middleware.CaService #cam_sent 419
scalar World.node[6].appl.middleware.ExampleService #full_proofs 0
scalar World.node[6].appl.middleware.ExampleService #half_proofs 1
scalar World.node[6].appl.middleware.ExampleService #failed_proofs 2
scalar World.node[6].appl.middleware.ExampleService #loc_proof_send 19
scalar World.node[6].nic.phy80211p busyTime 0.0033653793103448
scalar World.node[6].nic.mac1609_4 ReceivedUnicastPackets 0
scalar World.node[6].nic.mac1609_4 ReceivedBroadcasts 2763
scalar World.node[6].nic.mac1609_4 SentPackets 438
scalar World.node[6].nic.mac1609_4 SentAcknowledgements 0
scalar World.node[6].nic.mac1609_4 SNIRLostPackets 863
scalar World.node[6].nic.mac1609_4 RXTXLostPackets 37
scalar World.node[6].nic.mac1609_4 TotalLostPackets 900
scalar World.node[6].nic.mac1609_4 DroppedPacketsInMac 0
scalar World.node[6].nic.mac1609_4 TooLittleTime 0
scalar World.node[6].nic.mac1609_4 TimesIntoBackoff 439
scalar World.node[6].nic.mac1609_4 SlotsBackoff 3290
scalar World.node[6].nic.mac1609_4 NumInternalContention 0
scalar World.node[6].nic.mac1609_4 totalBusyTime 0.650126074898
scalar World.node[0].appl.middleware.CaService #cam_sent 632
scalar World.node[0].appl.middleware.ExampleService #full_proofs 0
scalar World.node[0].appl.middleware.ExampleService #half_proofs 3
scalar World.node[0].appl.middleware.ExampleService #failed_proofs 0
scalar World.node[0].appl.middleware.ExampleService #loc_proof_send 26
scalar World.node[0].nic.phy80211p busyTime 0.0027509482071713
scalar World.node[0].nic.mac1609_4 ReceivedUnicastPackets 0
scalar World.node[0].nic.mac1609_4 ReceivedBroadcasts 3401
scalar World.node[0].nic.mac1609_4 SentPackets 658
scalar World.node[0].nic.mac1609_4 SentAcknowledgements 0
scalar World.node[0].nic.mac1609_4 SNIRLostPackets 866
scalar World.node[0].nic.mac1609_4 RXTXLostPackets 55
scalar World.node[0].nic.mac1609_4 TotalLostPackets 921
scalar World.node[0].nic.mac1609_4 DroppedPacketsInMac 0
scalar World.node[0].nic.mac1609_4 TooLittleTime 0
scalar World.node[0].nic.mac1609_4 TimesIntoBackoff 660
scalar World.node[0].nic.mac1609_4 SlotsBackoff 5040
scalar World.node[0].nic.mac1609_4 NumInternalContention 0
scalar World.node[0].nic.mac1609_4 totalBusyTime 0.792042
scalar World.node[13].appl.middleware.CaService #cam_sent 164
scalar World.node[13].appl.middleware.ExampleService #full_proofs 0
scalar World.node[13].appl.middleware.ExampleService #half_proofs 1
scalar World.node[13].appl.middleware.ExampleService #failed_proofs 0
scalar World.node[13].appl.middleware.ExampleService #loc_proof_send 6
scalar World.node[13].nic.phy80211p busyTime 0.0036163265306122
scalar World.node[13].nic.mac1609_4 ReceivedUnicastPackets 0
scalar World.node[13].nic.mac1609_4 ReceivedBroadcasts 824
scalar World.node[13].nic.mac1609_4 SentPackets 170
scalar World.node[13].nic.mac1609_4 SentAcknowledgements 0
scalar World.node[13].nic.mac1609_4 SNIRLostPackets 278
scalar World.node[13].nic.mac1609_4 RXTXLostPackets 6
scalar World.node[13].nic.mac1609_4 TotalLostPackets 284
scalar World.node[13].nic.mac1609_4 DroppedPacketsInMac 0
scalar World.node[13].nic.mac1609_4 TooLittleTime 0
scalar World.node[13].nic.mac1609_4 TimesIntoBackoff 170
scalar World.node[13].nic.mac1609_4 SlotsBackoff 1311
scalar World.node[13].nic.mac1609_4 NumInternalContention 0
scalar World.node[13].nic.mac1609_4 totalBusyTime 0.20161
scalar World.node[14].appl.middleware.CaService #cam_sent 168
scalar World.node[14].appl.middleware.ExampleService #full_proofs 0
scalar World.node[14].appl.middleware.ExampleService #half_proofs 1
scalar World.node[14].appl.middleware.ExampleService #failed_proofs 0
scalar World.node[14].appl.middleware.ExampleService #loc_proof_send 5
scalar World.node[14].nic.phy80211p busyTime 0.00365616
scalar World.node[14].nic.mac1609_4 ReceivedUnicastPackets 0
scalar World.node[14].nic.mac1609_4 ReceivedBroadcasts 850
scalar World.node[14].nic.mac1609_4 SentPackets 173
scalar World.node[14].nic.mac1609_4 SentAcknowledgements 0
scalar World.node[14].nic.mac1609_4 SNIRLostPackets 286
scalar World.node[14].nic.mac1609_4 RXTXLostPackets 5
scalar World.node[14].nic.mac1609_4 TotalLostPackets 291
scalar World.node[14].nic.mac1609_4 DroppedPacketsInMac 0
scalar World.node[14].nic.mac1609_4 TooLittleTime 0
scalar World.node[14].nic.mac1609_4 TimesIntoBackoff 173
scalar World.node[14].nic.mac1609_4 SlotsBackoff 1124
scalar World.node[14].nic.mac1609_4 NumInternalContention 0
scalar World.node[14].nic.mac1609_4 totalBusyTime 0.207509
scalar World.node[8].appl.middleware.CaService #cam_sent 482
scalar World.node[8].appl.middleware.ExampleService #full_proofs 0
scalar World.node[8].appl.middleware.ExampleService #half_proofs 3
scalar World.node[8].appl.middleware.ExampleService #failed_proofs 0
scalar World.node[8].appl.middleware.ExampleService #loc_proof_send 25
scalar World.node[8].nic.phy80211p busyTime 0.0034375418994413
scalar World.node[8].nic.mac1609_4 ReceivedUnicastPackets 0
scalar World.node[8].nic.mac1609_4 ReceivedBroadcasts 3201
scalar World.node[8].nic.mac1609_4 SentPackets 507
scalar World.node[8].nic.mac1609_4 SentAcknowledgements 0
scalar World.node[8].nic.mac1609_4 SNIRLostPackets 602
scalar World.node[8].nic.mac1609_4 RXTXLostPackets 71
scalar World.node[8].nic.mac1609_4 TotalLostPackets 673
scalar World.node[8].nic.mac1609_4 DroppedPacketsInMac 0
scalar World.node[8].nic.mac1609_4 TooLittleTime 0
scalar World.node[8].nic.mac1609_4 TimesIntoBackoff 511
scalar World.node[8].nic.mac1609_4 SlotsBackoff 3754
scalar World.node[8].nic.mac1609_4 NumInternalContention 0
scalar World.node[8].nic.mac1609_4 totalBusyTime 0.692667240242
scalar World.node[17].appl.middleware.CaService #cam_sent 118
scalar World.node[17].appl.middleware.ExampleService #full_proofs 0
scalar World.node[17].appl.middleware.ExampleService #half_proofs 1
scalar World.node[17].appl.middleware.ExampleService #failed_proofs 0
scalar World.node[17].appl.middleware.ExampleService #loc_proof_send 7
scalar World.node[17].nic.phy80211p busyTime 0.0037009523809523
scalar World.node[17].nic.mac1609_4 ReceivedUnicastPackets 0
scalar World.node[17].nic.mac1609_4 ReceivedBroadcasts 897
scalar World.node[17].nic.mac1609_4 SentPackets 125
scalar World.node[17].nic.mac1609_4 SentAcknowledgements 0
scalar World.node[17].nic.mac1609_4 SNIRLostPackets 63
scalar World.node[17].nic.mac1609_4 RXTXLostPackets 25
scalar World.node[17].nic.mac1609_4 TotalLostPackets 88
scalar World.node[17].nic.mac1609_4 DroppedPacketsInMac 0
scalar World.node[17].nic.mac1609_4 TooLittleTime 0
scalar World.node[17].nic.mac1609_4 TimesIntoBackoff 128
scalar World.node[17].nic.mac1609_4 SlotsBackoff 978
scalar World.node[17].nic.mac1609_4 NumInternalContention 0
scalar World.node[17].nic.mac1609_4 totalBusyTime 0.175293
scalar World.node[10].appl.middleware.CaService #cam_sent 483
scalar World.node[10].appl.middleware.ExampleService #full_proofs 0
scalar World.node[10].appl.middleware.ExampleService #half_proofs 3
scalar World.node[10].appl.middleware.ExampleService #failed_proofs 0
scalar World.node[10].appl.middleware.ExampleService #loc_proof_send 19
scalar World.node[10].nic.phy80211p busyTime 0.0033055308641975
scalar World.node[10].nic.mac1609_4 ReceivedUnicastPackets 0
scalar World.node[10].nic.mac1609_4 ReceivedBroadcasts 2929
scalar World.node[10].nic.mac1609_4 SentPackets 502
scalar World.node[10].nic.mac1609_4 SentAcknowledgements 0
scalar World.node[10].nic.mac1609_4 SNIRLostPackets 384
scalar World.node[10].nic.mac1609_4 RXTXLostPackets 34
scalar World.node[10].nic.mac1609_4 TotalLostPackets 418
scalar World.node[10].nic.mac1609_4 DroppedPacketsInMac 0
scalar World.node[10].nic.mac1609_4 TooLittleTime 0
scalar World.node[10].nic.mac1609_4 TimesIntoBackoff 505
scalar World.node[10].nic.mac1609_4 SlotsBackoff 3893
scalar World.node[10].nic.mac1609_4 NumInternalContention 0
scalar World.node[10].nic.mac1609_4 totalBusyTime 0.610686
scalar World.node[12].appl.middleware.CaService #cam_sent 453
scalar World.node[12].appl.middleware.ExampleService #full_proofs 0
scalar World.node[12].appl.middleware.ExampleService #half_proofs 3
scalar World.node[12].appl.middleware.ExampleService #failed_proofs 0
scalar World.node[12].appl.middleware.ExampleService #loc_proof_send 18
scalar World.node[12].nic.phy80211p busyTime 0.0034718036809815
scalar World.node[12].nic.mac1609_4 ReceivedUnicastPackets 0
scalar World.node[12].nic.mac1609_4 ReceivedBroadcasts 2817
scalar World.node[12].nic.mac1609_4 SentPackets 471
scalar World.node[12].nic.mac1609_4 SentAcknowledgements 0
scalar World.node[12].nic.mac1609_4 SNIRLostPackets 685
scalar World.node[12].nic.mac1609_4 RXTXLostPackets 51
scalar World.node[12].nic.mac1609_4 TotalLostPackets 736
scalar World.node[12].nic.mac1609_4 DroppedPacketsInMac 0
scalar World.node[12].nic.mac1609_4 TooLittleTime 0
scalar World.node[12].nic.mac1609_4 TimesIntoBackoff 473
scalar World.node[12].nic.mac1609_4 SlotsBackoff 3615
scalar World.node[12].nic.mac1609_4 NumInternalContention 0
scalar World.node[12].nic.mac1609_4 totalBusyTime 0.637383
scalar World.node[15].appl.middleware.CaService #cam_sent 394
scalar World.node[15].appl.middleware.ExampleService #full_proofs 0
scalar World.node[15].appl.middleware.ExampleService #half_proofs 2
scalar World.node[15].appl.middleware.ExampleService #failed_proofs 0
scalar World.node[15].appl.middleware.ExampleService #loc_proof_send 13
scalar World.node[15].nic.phy80211p busyTime 0.0033774237288135
scalar World.node[15].nic.mac1609_4 ReceivedUnicastPackets 0
scalar World.node[15].nic.mac1609_4 ReceivedBroadcasts 2168
scalar World.node[15].nic.mac1609_4 SentPackets 407
scalar World.node[15].nic.mac1609_4 SentAcknowledgements 0
scalar World.node[15].nic.mac1609_4 SNIRLostPackets 295
scalar World.node[15].nic.mac1609_4 RXTXLostPackets 39
scalar World.node[15].nic.mac1609_4 TotalLostPackets 334
scalar World.node[15].nic.mac1609_4 DroppedPacketsInMac 0
scalar World.node[15].nic.mac1609_4 TooLittleTime 0
scalar World.node[15].nic.mac1609_4 TimesIntoBackoff 411
scalar World.node[15].nic.mac1609_4 SlotsBackoff 3096
scalar World.node[15].nic.mac1609_4 NumInternalContention 0
scalar World.node[15].nic.mac1609_4 totalBusyTime 0.461711102051
scalar World.node[9].appl.middleware.CaService #cam_sent 711
scalar World.node[9].appl.middleware.ExampleService #full_proofs 0
scalar World.node[9].appl.middleware.ExampleService #half_proofs 5
scalar World.node[9].appl.middleware.ExampleService #failed_proofs 0
scalar World.node[9].appl.middleware.ExampleService #loc_proof_send 39
scalar World.node[9].nic.phy80211p busyTime 0.0035450496453901
scalar World.node[9].nic.mac1609_4 ReceivedUnicastPackets 0
scalar World.node[9].nic.mac1609_4 ReceivedBroadcasts 5426
scalar World.node[9].nic.mac1609_4 SentPackets 750
scalar World.node[9].nic.mac1609_4 SentAcknowledgements 0
scalar World.node[9].nic.mac1609_4 SNIRLostPackets 753
scalar World.node[9].nic.mac1609_4 RXTXLostPackets 92
scalar World.node[9].nic.mac1609_4 TotalLostPackets 845
scalar World.node[9].nic.mac1609_4 DroppedPacketsInMac 0
scalar World.node[9].nic.mac1609_4 TooLittleTime 0
scalar World.node[9].nic.mac1609_4 TimesIntoBackoff 753
scalar World.node[9].nic.mac1609_4 SlotsBackoff 5608
scalar World.node[9].nic.mac1609_4 NumInternalContention 0
scalar World.node[9].nic.mac1609_4 totalBusyTime 1.112534064469
scalar World.node[23].appl.middleware.CaService #cam_sent 102
scalar World.node[23].appl.middleware.ExampleService #full_proofs 0
scalar World.node[23].appl.middleware.ExampleService #half_proofs 0
scalar World.node[23].appl.middleware.ExampleService #failed_proofs 0
scalar World.node[23].appl.middleware.ExampleService #loc_proof_send 3
scalar World.node[23].nic.phy80211p busyTime 0.0043877333333333
scalar World.node[23].nic.mac1609_4 ReceivedUnicastPackets 0
scalar World.node[23].nic.mac1609_4 ReceivedBroadcasts 737
scalar World.node[23].nic.mac1609_4 SentPackets 105
scalar World.node[23].nic.mac1609_4 SentAcknowledgements 0
scalar World.node[23].nic.mac1609_4 SNIRLostPackets 79
scalar World.node[23].nic.mac1609_4 RXTXLostPackets 15
scalar World.node[23].nic.mac1609_4 TotalLostPackets 94
scalar World.node[23].nic.mac1609_4 DroppedPacketsInMac 0
scalar World.node[23].nic.mac1609_4 TooLittleTime 0
scalar World.node[23].nic.mac1609_4 TimesIntoBackoff 106
scalar World.node[23].nic.mac1609_4 SlotsBackoff 790
scalar World.node[23].nic.mac1609_4 NumInternalContention 0
scalar World.node[23].nic.mac1609_4 totalBusyTime 0.148377
scalar World.node[20].appl.middleware.CaService #cam_sent 318
scalar World.node[20].appl.middleware.ExampleService #full_proofs 0
scalar World.node[20].appl.middleware.ExampleService #half_proofs 1
scalar World.node[20].appl.middleware.ExampleService #failed_proofs 0
scalar World.node[20].appl.middleware.ExampleService #loc_proof_send 14
scalar World.node[20].nic.phy80211p busyTime 0.0036652631578947
scalar World.node[20].nic.mac1609_4 ReceivedUnicastPackets 0
scalar World.node[20].nic.mac1609_4 ReceivedBroadcasts 1961
scalar World.node[20].nic.mac1609_4 SentPackets 332
scalar World.node[20].nic.mac1609_4 SentAcknowledgements 0
scalar World.node[20].nic.mac1609_4 SNIRLostPackets 190
scalar World.node[20].nic.mac1609_4 RXTXLostPackets 49
scalar World.node[20].nic.mac1609_4 TotalLostPackets 239
scalar World.node[20].nic.mac1609_4 DroppedPacketsInMac 0
scalar World.node[20].nic.mac1609_4 TooLittleTime 0
scalar World.node[20].nic.mac1609_4 TimesIntoBackoff 336
scalar World.node[20].nic.mac1609_4 SlotsBackoff 2556
scalar World.node[20].nic.mac1609_4 NumInternalContention 0
scalar World.node[20].nic.mac1609_4 totalBusyTime 0.400796
scalar World.node[19].appl.middleware.CaService #cam_sent 382
scalar World.node[19].appl.middleware.ExampleService #full_proofs 0
scalar World.node[19].appl.middleware.ExampleService #half_proofs 2
scalar World.node[19].appl.middleware.ExampleService #failed_proofs 0
scalar World.node[19].appl.middleware.ExampleService #loc_proof_send 16
scalar World.node[19].nic.phy80211p busyTime 0.0036264715447154
scalar World.node[19].nic.mac1609_4 ReceivedUnicastPackets 0
scalar World.node[19].nic.mac1609_4 ReceivedBroadcasts 2593
scalar World.node[19].nic.mac1609_4 SentPackets 398
scalar World.node[19].nic.mac1609_4 SentAcknowledgements 0
scalar World.node[19].nic.mac1609_4 SNIRLostPackets 160
scalar World.node[19].nic.mac1609_4 RXTXLostPackets 54
scalar World.node[19].nic.mac1609_4 TotalLostPackets 214
scalar World.node[19].nic.mac1609_4 DroppedPacketsInMac 0
scalar World.node[19].nic.mac1609_4 TooLittleTime 0
scalar World.node[19].nic.mac1609_4 TimesIntoBackoff 403
scalar World.node[19].nic.mac1609_4 SlotsBackoff 2922
scalar World.node[19].nic.mac1609_4 NumInternalContention 0
scalar World.node[19].nic.mac1609_4 totalBusyTime 0.509014413122
scalar World.node[18].appl.middleware.CaService #cam_sent 514
scalar World.node[18].appl.middleware.ExampleService #full_proofs 0
scalar World.node[18].appl.middleware.ExampleService #half_proofs 2
scalar World.node[18].appl.middleware.ExampleService #failed_proofs 0
scalar World.node[18].appl.middleware.ExampleService #loc_proof_send 19
scalar World.node[18].nic.phy80211p busyTime 0.0034839763313609
scalar World.node[18].nic.mac1609_4 ReceivedUnicastPackets 0
scalar World.node[18].nic.mac1609_4 ReceivedBroadcasts 3203
scalar World.node[18].nic.mac1609_4 SentPackets 533
scalar World.node[18].nic.mac1609_4 SentAcknowledgements 0
scalar World.node[18].nic.mac1609_4 SNIRLostPackets 434
scalar World.node[18].nic.mac1609_4 RXTXLostPackets 43
scalar World.node[18].nic.mac1609_4 TotalLostPackets 477
scalar World.node[18].nic.mac1609_4 DroppedPacketsInMac 0
scalar World.node[18].nic.mac1609_4 TooLittleTime 0
scalar World.node[18].nic.mac1609_4 TimesIntoBackoff 538
scalar World.node[18].nic.mac1609_4 SlotsBackoff 3965
scalar World.node[18].nic.mac1609_4 NumInternalContention 0
scalar World.node[18].nic.mac1609_4 totalBusyTime 0.670973
scalar World.node[16].appl.middleware.CaService #cam_sent 502
scalar World.node[16].appl.middleware.ExampleService #full_proofs 0
scalar World.node[16].appl.middleware.ExampleService #half_proofs 3
scalar World.node[16].appl.middleware.ExampleService #failed_proofs 0
scalar World.node[16].appl.middleware.ExampleService #loc_proof_send 24
scalar World.node[16].nic.phy80211p busyTime 0.0035594589371981
scalar World.node[16].nic.mac1609_4 ReceivedUnicastPackets 0
scalar World.node[16].nic.mac1609_4 ReceivedBroadcasts 4275
scalar World.node[16].nic.mac1609_4 SentPackets 526
scalar World.node[16].nic.mac1609_4 SentAcknowledgements 0
scalar World.node[16].nic.mac1609_4 SNIRLostPackets 273
scalar World.node[16].nic.mac1609_4 RXTXLostPackets 60
scalar World.node[16].nic.mac1609_4 TotalLostPackets 333
scalar World.node[16].nic.mac1609_4 DroppedPacketsInMac 0
scalar World.node[16].nic.mac1609_4 TooLittleTime 0
scalar World.node[16].nic.mac1609_4 TimesIntoBackoff 529
scalar World.node[16].nic.mac1609_4 SlotsBackoff 3924
scalar World.node[16].nic.mac1609_4 NumInternalContention 0
scalar World.node[16].nic.mac1609_4 totalBusyTime 0.817230033444
scalar World.node[11].appl.middleware.CaService #cam_sent 905
scalar World.node[11].appl.middleware.ExampleService #full_proofs 0
scalar World.node[11].appl.middleware.ExampleService #half_proofs 4
scalar World.node[11].appl.middleware.ExampleService #failed_proofs 2
scalar World.node[11].appl.middleware.ExampleService #loc_proof_send 39
scalar World.node[11].nic.phy80211p busyTime 0.0036129212827986
scalar World.node[11].nic.mac1609_4 ReceivedUnicastPackets 0
scalar World.node[11].nic.mac1609_4 ReceivedBroadcasts 5914
scalar World.node[11].nic.mac1609_4 SentPackets 944
scalar World.node[11].nic.mac1609_4 SentAcknowledgements 0
scalar World.node[11].nic.mac1609_4 SNIRLostPackets 1748
scalar World.node[11].nic.mac1609_4 RXTXLostPackets 77
scalar World.node[11].nic.mac1609_4 TotalLostPackets 1825
scalar World.node[11].nic.mac1609_4 DroppedPacketsInMac 0
scalar World.node[11].nic.mac1609_4 TooLittleTime 0
scalar World.node[11].nic.mac1609_4 TimesIntoBackoff 946
scalar World.node[11].nic.mac1609_4 SlotsBackoff 6807
scalar World.node[11].nic.mac1609_4 NumInternalContention 0
scalar World.node[11].nic.mac1609_4 totalBusyTime 1.380520327612
scalar World.node[26].appl.middleware.CaService #cam_sent 268
scalar World.node[26].appl.middleware.ExampleService #full_proofs 0
scalar World.node[26].appl.middleware.ExampleService #half_proofs 1
scalar World.node[26].appl.middleware.ExampleService #failed_proofs 0
scalar World.node[26].appl.middleware.ExampleService #loc_proof_send 12
scalar World.node[26].nic.phy80211p busyTime 0.0038187586206896
scalar World.node[26].nic.mac1609_4 ReceivedUnicastPackets 0
scalar World.node[26].nic.mac1609_4 ReceivedBroadcasts 1905
scalar World.node[26].nic.mac1609_4 SentPackets 280
scalar World.node[26].nic.mac1609_4 SentAcknowledgements 0
scalar World.node[26].nic.mac1609_4 SNIRLostPackets 155
scalar World.node[26].nic.mac1609_4 RXTXLostPackets 16
scalar World.node[26].nic.mac1609_4 TotalLostPackets 171
scalar World.node[26].nic.mac1609_4 DroppedPacketsInMac 0
scalar World.node[26].nic.mac1609_4 TooLittleTime 0
scalar World.node[26].nic.mac1609_4 TimesIntoBackoff 280
scalar World.node[26].nic.mac1609_4 SlotsBackoff 2061
scalar World.node[26].nic.mac1609_4 NumInternalContention 0
scalar World.node[26].nic.mac1609_4 totalBusyTime 0.374040328575
scalar World.node[22].appl.middleware.CaService #cam_sent 522
scalar World.node[22].appl.middleware.ExampleService #full_proofs 0
scalar World.node[22].appl.middleware.ExampleService #half_proofs 2
scalar World.node[22].appl.middleware.ExampleService #failed_proofs 0
scalar World.node[22].appl.middleware.ExampleService #loc_proof_send 22
scalar World.node[22].nic.phy80211p busyTime 0.0037252737430167
scalar World.node[22].nic.mac1609_4 ReceivedUnicastPackets 0
scalar World.node[22].nic.mac1609_4 ReceivedBroadcasts 3707
scalar World.node[22].nic.mac1609_4 SentPackets 544
scalar World.node[22].nic.mac1609_4 SentAcknowledgements 0
scalar World.node[22].nic.mac1609_4 SNIRLostPackets 423
scalar World.node[22].nic.mac1609_4 RXTXLostPackets 36
scalar World.node[22].nic.mac1609_4 TotalLostPackets 459
scalar World.node[22].nic.mac1609_4 DroppedPacketsInMac 0
scalar World.node[22].nic.mac1609_4 TooLittleTime 0
scalar World.node[22].nic.mac1609_4 TimesIntoBackoff 546
scalar World.node[22].nic.mac1609_4 SlotsBackoff 3982
scalar World.node[22].nic.mac1609_4 NumInternalContention 0
scalar World.node[22].nic.mac1609_4 totalBusyTime 0.748208242093
scalar World.node[24].appl.middleware.CaService #cam_sent 551
scalar World.node[24].appl.middleware.ExampleService #full_proofs 0
scalar World.node[24].appl.middleware.ExampleService #half_proofs 3
scalar World.node[24].appl.middleware.ExampleService #failed_proofs 0
scalar World.node[24].appl.middleware.ExampleService #loc_proof_send 25
scalar World.node[24].nic.phy80211p busyTime 0.0038958620689655
scalar World.node[24].nic.mac1609_4 ReceivedUnicastPackets 0
scalar World.node[24].nic.mac1609_4 ReceivedBroadcasts 3483
scalar World.node[24].nic.mac1609_4 SentPackets 576
scalar World.node[24].nic.mac1609_4 SentAcknowledgements 0
scalar World.node[24].nic.mac1609_4 SNIRLostPackets 716
scalar World.node[24].nic.mac1609_4 RXTXLostPackets 44
scalar World.node[24].nic.mac1609_4 TotalLostPackets 760
scalar World.node[24].nic.mac1609_4 DroppedPacketsInMac 0
scalar World.node[24].nic.mac1609_4 TooLittleTime 0
scalar World.node[24].nic.mac1609_4 TimesIntoBackoff 582
scalar World.node[24].nic.mac1609_4 SlotsBackoff 4251
scalar World.node[24].nic.mac1609_4 NumInternalContention 0
scalar World.node[24].nic.mac1609_4 totalBusyTime 0.763544
scalar World.node[21].appl.middleware.CaService #cam_sent 637
scalar World.node[21].appl.middleware.ExampleService #full_proofs 1
scalar World.node[21].appl.middleware.ExampleService #half_proofs 3
scalar World.node[21].appl.middleware.ExampleService #failed_proofs 0
scalar World.node[21].appl.middleware.ExampleService #loc_proof_send 27
scalar World.node[21].nic.phy80211p busyTime 0.0038462259414226
scalar World.node[21].nic.mac1609_4 ReceivedUnicastPackets 0
scalar World.node[21].nic.mac1609_4 ReceivedBroadcasts 4453
scalar World.node[21].nic.mac1609_4 SentPackets 664
scalar World.node[21].nic.mac1609_4 SentAcknowledgements 0
scalar World.node[21].nic.mac1609_4 SNIRLostPackets 1232
scalar World.node[21].nic.mac1609_4 RXTXLostPackets 77
scalar World.node[21].nic.mac1609_4 TotalLostPackets 1309
scalar World.node[21].nic.mac1609_4 DroppedPacketsInMac 0
scalar World.node[21].nic.mac1609_4 TooLittleTime 0
scalar World.node[21].nic.mac1609_4 TimesIntoBackoff 667
scalar World.node[21].nic.mac1609_4 SlotsBackoff 4751
scalar World.node[21].nic.mac1609_4 NumInternalContention 0
scalar World.node[21].nic.mac1609_4 totalBusyTime 1.02026437626
scalar World.node[25].appl.middleware.CaService #cam_sent 422
scalar World.node[25].appl.middleware.ExampleService #full_proofs 1
scalar World.node[25].appl.middleware.ExampleService #half_proofs 1
scalar World.node[25].appl.middleware.ExampleService #failed_proofs 0
scalar World.node[25].appl.middleware.ExampleService #loc_proof_send 25
scalar World.node[25].nic.phy80211p busyTime 0.0039987199999999
scalar World.node[25].nic.mac1609_4 ReceivedUnicastPackets 0
scalar World.node[25].nic.mac1609_4 ReceivedBroadcasts 3719
scalar World.node[25].nic.mac1609_4 SentPackets 447
scalar World.node[25].nic.mac1609_4 SentAcknowledgements 0
scalar World.node[25].nic.mac1609_4 SNIRLostPackets 611
scalar World.node[25].nic.mac1609_4 RXTXLostPackets 78
scalar World.node[25].nic.mac1609_4 TotalLostPackets 689
scalar World.node[25].nic.mac1609_4 DroppedPacketsInMac 0
scalar World.node[25].nic.mac1609_4 TooLittleTime 0
scalar World.node[25].nic.mac1609_4 TimesIntoBackoff 450
scalar World.node[25].nic.mac1609_4 SlotsBackoff 3312
scalar World.node[25].nic.mac1609_4 NumInternalContention 0
scalar World.node[25].nic.mac1609_4 totalBusyTime 0.766295340775
scalar World.node[29].appl.middleware.CaService #cam_sent 486
scalar World.node[29].appl.middleware.ExampleService #full_proofs 0
scalar World.node[29].appl.middleware.ExampleService #half_proofs 3
scalar World.node[29].appl.middleware.ExampleService #failed_proofs 0
scalar World.node[29].appl.middleware.ExampleService #loc_proof_send 30
scalar World.node[29].nic.phy80211p busyTime 0.0049146256410256
scalar World.node[29].nic.mac1609_4 ReceivedUnicastPackets 0
scalar World.node[29].nic.mac1609_4 ReceivedBroadcasts 5314
scalar World.node[29].nic.mac1609_4 SentPackets 516
scalar World.node[29].nic.mac1609_4 SentAcknowledgements 0
scalar World.node[29].nic.mac1609_4 SNIRLostPackets 630
scalar World.node[29].nic.mac1609_4 RXTXLostPackets 132
scalar World.node[29].nic.mac1609_4 TotalLostPackets 762
scalar World.node[29].nic.mac1609_4 DroppedPacketsInMac 0
scalar World.node[29].nic.mac1609_4 TooLittleTime 0
scalar World.node[29].nic.mac1609_4 TimesIntoBackoff 522
scalar World.node[29].nic.mac1609_4 SlotsBackoff 3983
scalar World.node[29].nic.mac1609_4 NumInternalContention 0
scalar World.node[29].nic.mac1609_4 totalBusyTime 1.029236017364
scalar World.node[27].appl.middleware.CaService #cam_sent 594
scalar World.node[27].appl.middleware.ExampleService #full_proofs 0
scalar World.node[27].appl.middleware.ExampleService #half_proofs 4
scalar World.node[27].appl.middleware.ExampleService #failed_proofs 0
scalar World.node[27].appl.middleware.ExampleService #loc_proof_send 45
scalar World.node[27].nic.phy80211p busyTime 0.0049408535564851
scalar World.node[27].nic.mac1609_4 ReceivedUnicastPackets 0
scalar World.node[27].nic.mac1609_4 ReceivedBroadcasts 6532
scalar World.node[27].nic.mac1609_4 SentPackets 639
scalar World.node[27].nic.mac1609_4 SentAcknowledgements 0
scalar World.node[27].nic.mac1609_4 SNIRLostPackets 785
scalar World.node[27].nic.mac1609_4 RXTXLostPackets 197
scalar World.node[27].nic.mac1609_4 TotalLostPackets 982
scalar World.node[27].nic.mac1609_4 DroppedPacketsInMac 0
scalar World.node[27].nic.mac1609_4 TooLittleTime 0
scalar World.node[27].nic.mac1609_4 TimesIntoBackoff 648
scalar World.node[27].nic.mac1609_4 SlotsBackoff 4980
scalar World.node[27].nic.mac1609_4 NumInternalContention 0
scalar World.node[27].nic.mac1609_4 totalBusyTime 1.270816119906
scalar World.node[28].appl.middleware.CaService #cam_sent 609
scalar World.node[28].appl.middleware.ExampleService #full_proofs 0
scalar World.node[28].appl.middleware.ExampleService #half_proofs 3
scalar World.node[28].appl.middleware.ExampleService #failed_proofs 0
scalar World.node[28].appl.middleware.ExampleService #loc_proof_send 41
scalar World.node[28].nic.phy80211p busyTime 0.0050660521739128
scalar World.node[28].nic.mac1609_4 ReceivedUnicastPackets 0
scalar World.node[28].nic.mac1609_4 ReceivedBroadcasts 6002
scalar World.node[28].nic.mac1609_4 SentPackets 650
scalar World.node[28].nic.mac1609_4 SentAcknowledgements 0
scalar World.node[28].nic.mac1609_4 SNIRLostPackets 1233
scalar World.node[28].nic.mac1609_4 RXTXLostPackets 181
scalar World.node[28].nic.mac1609_4 TotalLostPackets 1414
scalar World.node[28].nic.mac1609_4 DroppedPacketsInMac 0
scalar World.node[28].nic.mac1609_4 TooLittleTime 0
scalar World.node[28].nic.mac1609_4 TimesIntoBackoff 656
scalar World.node[28].nic.mac1609_4 SlotsBackoff 5016
scalar World.node[28].nic.mac1609_4 NumInternalContention 0
scalar World.node[28].nic.mac1609_4 totalBusyTime 1.252155543221
scalar World.node[30].appl.middleware.CaService #cam_sent 595
scalar World.node[30].appl.middleware.ExampleService #full_proofs 0
scalar World.node[30].appl.middleware.ExampleService #half_proofs 4
scalar World.node[30].appl.middleware.ExampleService #failed_proofs 0
scalar World.node[30].appl.middleware.ExampleService #loc_proof_send 43
scalar World.node[30].nic.phy80211p busyTime 0.0053745641025637
scalar World.node[30].nic.mac1609_4 ReceivedUnicastPackets 0
scalar World.node[30].nic.mac1609_4 ReceivedBroadcasts 7148
scalar World.node[30].nic.mac1609_4 SentPackets 638
scalar World.node[30].nic.mac1609_4 SentAcknowledgements 0
scalar World.node[30].nic.mac1609_4 SNIRLostPackets 663
scalar World.node[30].nic.mac1609_4 RXTXLostPackets 153
scalar World.node[30].nic.mac1609_4 TotalLostPackets 816
scalar World.node[30].nic.mac1609_4 DroppedPacketsInMac 0
scalar World.node[30].nic.mac1609_4 TooLittleTime 0
scalar World.node[30].nic.mac1609_4 TimesIntoBackoff 643
scalar World.node[30].nic.mac1609_4 SlotsBackoff 4900
scalar World.node[30].nic.mac1609_4 NumInternalContention 0
scalar World.node[30].nic.mac1609_4 totalBusyTime 1.336942316999
scalar World.node[33].appl.middleware.CaService #cam_sent 543
scalar World.node[33].appl.middleware.ExampleService #full_proofs 0
scalar World.node[33].appl.middleware.ExampleService #half_proofs 3
scalar World.node[33].appl.middleware.ExampleService #failed_proofs 0
scalar World.node[33].appl.middleware.ExampleService #loc_proof_send 37
scalar World.node[33].nic.phy80211p busyTime 0.0054989494949492
scalar World.node[33].nic.mac1609_4 ReceivedUnicastPackets 0
scalar World.node[33].nic.mac1609_4 ReceivedBroadcasts 6052
scalar World.node[33].nic.mac1609_4 SentPackets 580
scalar World.node[33].nic.mac1609_4 SentAcknowledgements 0
scalar World.node[33].nic.mac1609_4 SNIRLostPackets 715
scalar World.node[33].nic.mac1609_4 RXTXLostPackets 144
scalar World.node[33].nic.mac1609_4 TotalLostPackets 859
scalar World.node[33].nic.mac1609_4 DroppedPacketsInMac 0
scalar World.node[33].nic.mac1609_4 TooLittleTime 0
scalar World.node[33].nic.mac1609_4 TimesIntoBackoff 585
scalar World.node[33].nic.mac1609_4 SlotsBackoff 4291
scalar World.node[33].nic.mac1609_4 NumInternalContention 0
scalar World.node[33].nic.mac1609_4 totalBusyTime 1.160292466743
scalar World.node[40].appl.middleware.CaService #cam_sent 262
scalar World.node[40].appl.middleware.ExampleService #full_proofs 0
scalar World.node[40].appl.middleware.ExampleService #half_proofs 2
scalar World.node[40].appl.middleware.ExampleService #failed_proofs 0
scalar World.node[40].appl.middleware.ExampleService #loc_proof_send 21
scalar World.node[40].nic.phy80211p busyTime 0.0060276153846153
scalar World.node[40].nic.mac1609_4 ReceivedUnicastPackets 0
scalar World.node[40].nic.mac1609_4 ReceivedBroadcasts 3485
scalar World.node[40].nic.mac1609_4 SentPackets 283
scalar World.node[40].nic.mac1609_4 SentAcknowledgements 0
scalar World.node[40].nic.mac1609_4 SNIRLostPackets 395
scalar World.node[40].nic.mac1609_4 RXTXLostPackets 151
scalar World.node[40].nic.mac1609_4 TotalLostPackets 546
scalar World.node[40].nic.mac1609_4 DroppedPacketsInMac 0
scalar World.node[40].nic.mac1609_4 TooLittleTime 0
scalar World.node[40].nic.mac1609_4 TimesIntoBackoff 286
scalar World.node[40].nic.mac1609_4 SlotsBackoff 2205
scalar World.node[40].nic.mac1609_4 NumInternalContention 0
scalar World.node[40].nic.mac1609_4 totalBusyTime 0.663683
scalar World.node[41].appl.middleware.CaService #cam_sent 314
scalar World.node[41].appl.middleware.ExampleService #full_proofs 0
scalar World.node[41].appl.middleware.ExampleService #half_proofs 1
scalar World.node[41].appl.middleware.ExampleService #failed_proofs 0
scalar World.node[41].appl.middleware.ExampleService #loc_proof_send 17
scalar World.node[41].nic.phy80211p busyTime 0.0060553191489361
scalar World.node[41].nic.mac1609_4 ReceivedUnicastPackets 0
scalar World.node[41].nic.mac1609_4 ReceivedBroadcasts 2838
scalar World.node[41].nic.mac1609_4 SentPackets 331
scalar World.node[41].nic.mac1609_4 SentAcknowledgements 0
scalar World.node[41].nic.mac1609_4 SNIRLostPackets 709
scalar World.node[41].nic.mac1609_4 RXTXLostPackets 79
scalar World.node[41].nic.mac1609_4 TotalLostPackets 788
scalar World.node[41].nic.mac1609_4 DroppedPacketsInMac 0
scalar World.node[41].nic.mac1609_4 TooLittleTime 0
scalar World.node[41].nic.mac1609_4 TimesIntoBackoff 331
scalar World.node[41].nic.mac1609_4 SlotsBackoff 2409
scalar World.node[41].nic.mac1609_4 NumInternalContention 0
scalar World.node[41].nic.mac1609_4 totalBusyTime 0.606883054493
scalar World.node[37].appl.middleware.CaService #cam_sent 362
scalar World.node[37].appl.middleware.ExampleService #full_proofs 0
scalar World.node[37].appl.middleware.ExampleService #half_proofs 2
scalar World.node[37].appl.middleware.ExampleService #failed_proofs 0
scalar World.node[37].appl.middleware.ExampleService #loc_proof_send 27
scalar World.node[37].nic.phy80211p busyTime 0.006123916083916
scalar World.node[37].nic.mac1609_4 ReceivedUnicastPackets 0
scalar World.node[37].nic.mac1609_4 ReceivedBroadcasts 4620
scalar World.node[37].nic.mac1609_4 SentPackets 389
scalar World.node[37].nic.mac1609_4 SentAcknowledgements 0
scalar World.node[37].nic.mac1609_4 SNIRLostPackets 816
scalar World.node[37].nic.mac1609_4 RXTXLostPackets 171
scalar World.node[37].nic.mac1609_4 TotalLostPackets 987
scalar World.node[37].nic.mac1609_4 DroppedPacketsInMac 0
scalar World.node[37].nic.mac1609_4 TooLittleTime 0
scalar World.node[37].nic.mac1609_4 TimesIntoBackoff 394
scalar World.node[37].nic.mac1609_4 SlotsBackoff 3044
scalar World.node[37].nic.mac1609_4 NumInternalContention 0
scalar World.node[37].nic.mac1609_4 totalBusyTime 0.924509204803
scalar World.node[32].appl.middleware.CaService #cam_sent 536
scalar World.node[32].appl.middleware.ExampleService #full_proofs 0
scalar World.node[32].appl.middleware.ExampleService #half_proofs 3
scalar World.node[32].appl.middleware.ExampleService #failed_proofs 0
scalar World.node[32].appl.middleware.ExampleService #loc_proof_send 44
scalar World.node[32].nic.phy80211p busyTime 0.0054982488479259
scalar World.node[32].nic.mac1609_4 ReceivedUnicastPackets 0
scalar World.node[32].nic.mac1609_4 ReceivedBroadcasts 6927
scalar World.node[32].nic.mac1609_4 SentPackets 580
scalar World.node[32].nic.mac1609_4 SentAcknowledgements 0
scalar World.node[32].nic.mac1609_4 SNIRLostPackets 482
scalar World.node[32].nic.mac1609_4 RXTXLostPackets 199
scalar World.node[32].nic.mac1609_4 TotalLostPackets 681
scalar World.node[32].nic.mac1609_4 DroppedPacketsInMac 0
scalar World.node[32].nic.mac1609_4 TooLittleTime 0
scalar World.node[32].nic.mac1609_4 TimesIntoBackoff 584
scalar World.node[32].nic.mac1609_4 SlotsBackoff 4405
scalar World.node[32].nic.mac1609_4 NumInternalContention 0
scalar World.node[32].nic.mac1609_4 totalBusyTime 1.266597321687
scalar World.node[36].appl.middleware.CaService #cam_sent 411
scalar World.node[36].appl.middleware.ExampleService #full_proofs 0
scalar World.node[36].appl.middleware.ExampleService #half_proofs 3
scalar World.node[36].appl.middleware.ExampleService #failed_proofs 0
scalar World.node[36].appl.middleware.ExampleService #loc_proof_send 38
scalar World.node[36].nic.phy80211p busyTime 0.0059509397590361
scalar World.node[36].nic.mac1609_4 ReceivedUnicastPackets 0
scalar World.node[36].nic.mac1609_4 ReceivedBroadcasts 5702
scalar World.node[36].nic.mac1609_4 SentPackets 449
scalar World.node[36].nic.mac1609_4 SentAcknowledgements 0
scalar World.node[36].nic.mac1609_4 SNIRLostPackets 430
scalar World.node[36].nic.mac1609_4 RXTXLostPackets 225
scalar World.node[36].nic.mac1609_4 TotalLostPackets 655
scalar World.node[36].nic.mac1609_4 DroppedPacketsInMac 0
scalar World.node[36].nic.mac1609_4 TooLittleTime 0
scalar World.node[36].nic.mac1609_4 TimesIntoBackoff 452
scalar World.node[36].nic.mac1609_4 SlotsBackoff 3439
scalar World.node[36].nic.mac1609_4 NumInternalContention 0
scalar World.node[36].nic.mac1609_4 totalBusyTime 1.046001064913
scalar World.node[48].appl.middleware.CaService #cam_sent 108
scalar World.node[48].appl.middleware.ExampleService #full_proofs 0
scalar World.node[48].appl.middleware.ExampleService #half_proofs 0
scalar World.node[48].appl.middleware.ExampleService #failed_proofs 0
scalar World.node[48].appl.middleware.ExampleService #loc_proof_send 7
scalar World.node[48].nic.phy80211p busyTime 0.005223
scalar World.node[48].nic.mac1609_4 ReceivedUnicastPackets 0
scalar World.node[48].nic.mac1609_4 ReceivedBroadcasts 900
scalar World.node[48].nic.mac1609_4 SentPackets 115
scalar World.node[48].nic.mac1609_4 SentAcknowledgements 0
scalar World.node[48].nic.mac1609_4 SNIRLostPackets 137
scalar World.node[48].nic.mac1609_4 RXTXLostPackets 52
scalar World.node[48].nic.mac1609_4 TotalLostPackets 189
scalar World.node[48].nic.mac1609_4 DroppedPacketsInMac 0
scalar World.node[48].nic.mac1609_4 TooLittleTime 0
scalar World.node[48].nic.mac1609_4 TimesIntoBackoff 118
scalar World.node[48].nic.mac1609_4 SlotsBackoff 899
scalar World.node[48].nic.mac1609_4 NumInternalContention 0
scalar World.node[48].nic.mac1609_4 totalBusyTime 0.184339
scalar World.node[34].appl.middleware.CaService #cam_sent 569
scalar World.node[34].appl.middleware.ExampleService #full_proofs 0
scalar World.node[34].appl.middleware.ExampleService #half_proofs 4
scalar World.node[34].appl.middleware.ExampleService #failed_proofs 0
scalar World.node[34].appl.middleware.ExampleService #loc_proof_send 44
scalar World.node[34].nic.phy80211p busyTime 0.0056509913043473
scalar World.node[34].nic.mac1609_4 ReceivedUnicastPackets 0
scalar World.node[34].nic.mac1609_4 ReceivedBroadcasts 7103
scalar World.node[34].nic.mac1609_4 SentPackets 613
scalar World.node[34].nic.mac1609_4 SentAcknowledgements 0
scalar World.node[34].nic.mac1609_4 SNIRLostPackets 970
scalar World.node[34].nic.mac1609_4 RXTXLostPackets 204
scalar World.node[34].nic.mac1609_4 TotalLostPackets 1174
scalar World.node[34].nic.mac1609_4 DroppedPacketsInMac 0
scalar World.node[34].nic.mac1609_4 TooLittleTime 0
scalar World.node[34].nic.mac1609_4 TimesIntoBackoff 617
scalar World.node[34].nic.mac1609_4 SlotsBackoff 4672
scalar World.node[34].nic.mac1609_4 NumInternalContention 0
scalar World.node[34].nic.mac1609_4 totalBusyTime 1.375173865499
scalar World.node[31].appl.middleware.CaService #cam_sent 591
scalar World.node[31].appl.middleware.ExampleService #full_proofs 0
scalar World.node[31].appl.middleware.ExampleService #half_proofs 5
scalar World.node[31].appl.middleware.ExampleService #failed_proofs 0
scalar World.node[31].appl.middleware.ExampleService #loc_proof_send 55
scalar World.node[31].nic.phy80211p busyTime 0.0054791310861417
scalar World.node[31].nic.mac1609_4 ReceivedUnicastPackets 0
scalar World.node[31].nic.mac1609_4 ReceivedBroadcasts 8527
scalar World.node[31].nic.mac1609_4 SentPackets 646
scalar World.node[31].nic.mac1609_4 SentAcknowledgements 0
scalar World.node[31].nic.mac1609_4 SNIRLostPackets 555
scalar World.node[31].nic.mac1609_4 RXTXLostPackets 241
scalar World.node[31].nic.mac1609_4 TotalLostPackets 796
scalar World.node[31].nic.mac1609_4 DroppedPacketsInMac 0
scalar World.node[31].nic.mac1609_4 TooLittleTime 0
scalar World.node[31].nic.mac1609_4 TimesIntoBackoff 649
scalar World.node[31].nic.mac1609_4 SlotsBackoff 4667
scalar World.node[31].nic.mac1609_4 NumInternalContention 0
scalar World.node[31].nic.mac1609_4 totalBusyTime 1.542919139454
scalar World.node[43].appl.middleware.CaService #cam_sent 277
scalar World.node[43].appl.middleware.ExampleService #full_proofs 0
scalar World.node[43].appl.middleware.ExampleService #half_proofs 2
scalar World.node[43].appl.middleware.ExampleService #failed_proofs 0
scalar World.node[43].appl.middleware.ExampleService #loc_proof_send 26
scalar World.node[43].nic.phy80211p busyTime 0.0060889203539822
scalar World.node[43].nic.mac1609_4 ReceivedUnicastPackets 0
scalar World.node[43].nic.mac1609_4 ReceivedBroadcasts 3738
scalar World.node[43].nic.mac1609_4 SentPackets 303
scalar World.node[43].nic.mac1609_4 SentAcknowledgements 0
scalar World.node[43].nic.mac1609_4 SNIRLostPackets 540
scalar World.node[43].nic.mac1609_4 RXTXLostPackets 132
scalar World.node[43].nic.mac1609_4 TotalLostPackets 672
scalar World.node[43].nic.mac1609_4 DroppedPacketsInMac 0
scalar World.node[43].nic.mac1609_4 TooLittleTime 0
scalar World.node[43].nic.mac1609_4 TimesIntoBackoff 305
scalar World.node[43].nic.mac1609_4 SlotsBackoff 2231
scalar World.node[43].nic.mac1609_4 NumInternalContention 0
scalar World.node[43].nic.mac1609_4 totalBusyTime 0.722327002117
scalar World.node[38].appl.middleware.CaService #cam_sent 511
scalar World.node[38].appl.middleware.ExampleService #full_proofs 0
scalar World.node[38].appl.middleware.ExampleService #half_proofs 3
scalar World.node[38].appl.middleware.ExampleService #failed_proofs 0
scalar World.node[38].appl.middleware.ExampleService #loc_proof_send 34
scalar World.node[38].nic.phy80211p busyTime 0.0057861492537311
scalar World.node[38].nic.mac1609_4 ReceivedUnicastPackets 0
scalar World.node[38].nic.mac1609_4 ReceivedBroadcasts 5039
scalar World.node[38].nic.mac1609_4 SentPackets 545
scalar World.node[38].nic.mac1609_4 SentAcknowledgements 0
scalar World.node[38].nic.mac1609_4 SNIRLostPackets 2205
scalar World.node[38].nic.mac1609_4 RXTXLostPackets 197
scalar World.node[38].nic.mac1609_4 TotalLostPackets 2402
scalar World.node[38].nic.mac1609_4 DroppedPacketsInMac 0
scalar World.node[38].nic.mac1609_4 TooLittleTime 0
scalar World.node[38].nic.mac1609_4 TimesIntoBackoff 552
scalar World.node[38].nic.mac1609_4 SlotsBackoff 4201
scalar World.node[38].nic.mac1609_4 NumInternalContention 0
scalar World.node[38].nic.mac1609_4 totalBusyTime 1.22864945873
scalar World.node[45].appl.middleware.CaService #cam_sent 377
scalar World.node[45].appl.middleware.ExampleService #full_proofs 0
scalar World.node[45].appl.middleware.ExampleService #half_proofs 2
scalar World.node[45].appl.middleware.ExampleService #failed_proofs 0
scalar World.node[45].appl.middleware.ExampleService #loc_proof_send 28
scalar World.node[45].nic.phy80211p busyTime 0.0056202748091602
scalar World.node[45].nic.mac1609_4 ReceivedUnicastPackets 0
scalar World.node[45].nic.mac1609_4 ReceivedBroadcasts 4229
scalar World.node[45].nic.mac1609_4 SentPackets 405
scalar World.node[45].nic.mac1609_4 SentAcknowledgements 0
scalar World.node[45].nic.mac1609_4 SNIRLostPackets 358
scalar World.node[45].nic.mac1609_4 RXTXLostPackets 90
scalar World.node[45].nic.mac1609_4 TotalLostPackets 448
scalar World.node[45].nic.mac1609_4 DroppedPacketsInMac 0
scalar World.node[45].nic.mac1609_4 TooLittleTime 0
scalar World.node[45].nic.mac1609_4 TimesIntoBackoff 407
scalar World.node[45].nic.mac1609_4 SlotsBackoff 3115
scalar World.node[45].nic.mac1609_4 NumInternalContention 0
scalar World.node[45].nic.mac1609_4 totalBusyTime 0.784101526367
scalar World.node[44].appl.middleware.CaService #cam_sent 368
scalar World.node[44].appl.middleware.ExampleService #full_proofs 0
scalar World.node[44].appl.middleware.ExampleService #half_proofs 2
scalar World.node[44].appl.middleware.ExampleService #failed_proofs 0
scalar World.node[44].appl.middleware.ExampleService #loc_proof_send 29
scalar World.node[44].nic.phy80211p busyTime 0.0056822068965516
scalar World.node[44].nic.mac1609_4 ReceivedUnicastPackets 0
scalar World.node[44].nic.mac1609_4 ReceivedBroadcasts 4273
scalar World.node[44].nic.mac1609_4 SentPackets 397
scalar World.node[44].nic.mac1609_4 SentAcknowledgements 0
scalar World.node[44].nic.mac1609_4 SNIRLostPackets 846
scalar World.node[44].nic.mac1609_4 RXTXLostPackets 179
scalar World.node[44].nic.mac1609_4 TotalLostPackets 1025
scalar World.node[44].nic.mac1609_4 DroppedPacketsInMac 0
scalar World.node[44].nic.mac1609_4 TooLittleTime 0
scalar World.node[44].nic.mac1609_4 TimesIntoBackoff 403
scalar World.node[44].nic.mac1609_4 SlotsBackoff 2935
scalar World.node[44].nic.mac1609_4 NumInternalContention 0
scalar World.node[44].nic.mac1609_4 totalBusyTime 0.874941735052
scalar World.node[35].appl.middleware.CaService #cam_sent 679
scalar World.node[35].appl.middleware.ExampleService #full_proofs 0
scalar World.node[35].appl.middleware.ExampleService #half_proofs 4
scalar World.node[35].appl.middleware.ExampleService #failed_proofs 0
scalar World.node[35].appl.middleware.ExampleService #loc_proof_send 50
scalar World.node[35].nic.phy80211p busyTime 0.0054721562499995
scalar World.node[35].nic.mac1609_4 ReceivedUnicastPackets 0
scalar World.node[35].nic.mac1609_4 ReceivedBroadcasts 7863
scalar World.node[35].nic.mac1609_4 SentPackets 729
scalar World.node[35].nic.mac1609_4 SentAcknowledgements 0
scalar World.node[35].nic.mac1609_4 SNIRLostPackets 814
scalar World.node[35].nic.mac1609_4 RXTXLostPackets 317
scalar World.node[35].nic.mac1609_4 TotalLostPackets 1131
scalar World.node[35].nic.mac1609_4 DroppedPacketsInMac 0
scalar World.node[35].nic.mac1609_4 TooLittleTime 0
scalar World.node[35].nic.mac1609_4 TimesIntoBackoff 736
scalar World.node[35].nic.mac1609_4 SlotsBackoff 5526
scalar World.node[35].nic.mac1609_4 NumInternalContention 0
scalar World.node[35].nic.mac1609_4 totalBusyTime 1.503138067152
scalar World.node[42].appl.middleware.CaService #cam_sent 22442
scalar World.node[42].appl.middleware.ExampleService #full_proofs 0
scalar World.node[42].appl.middleware.ExampleService #half_proofs 3
scalar World.node[42].appl.middleware.ExampleService #failed_proofs 0
scalar World.node[42].appl.middleware.ExampleService #loc_proof_send 36
scalar World.node[42].nic.phy80211p busyTime 0.0055212216748766
scalar World.node[42].nic.mac1609_4 ReceivedUnicastPackets 0
scalar World.node[42].nic.mac1609_4 ReceivedBroadcasts 5689
scalar World.node[42].nic.mac1609_4 SentPackets 520
scalar World.node[42].nic.mac1609_4 SentAcknowledgements 0
scalar World.node[42].nic.mac1609_4 SNIRLostPackets 1289
scalar World.node[42].nic.mac1609_4 RXTXLostPackets 190
scalar World.node[42].nic.mac1609_4 TotalLostPackets 1479
scalar World.node[42].nic.mac1609_4 DroppedPacketsInMac 0
scalar World.node[42].nic.mac1609_4 TooLittleTime 0
scalar World.node[42].nic.mac1609_4 TimesIntoBackoff 657
scalar World.node[42].nic.mac1609_4 SlotsBackoff 5035
scalar World.node[42].nic.mac1609_4 NumInternalContention 0
scalar World.node[42].nic.mac1609_4 totalBusyTime 1.182688072106
scalar World.node[58].appl.middleware.CaService #cam_sent 62
scalar World.node[58].appl.middleware.ExampleService #full_proofs 0
scalar World.node[58].appl.middleware.ExampleService #half_proofs 1
scalar World.node[58].appl.middleware.ExampleService #failed_proofs 0
scalar World.node[58].appl.middleware.ExampleService #loc_proof_send 5
scalar World.node[58].nic.phy80211p busyTime 0.0050177777777778
scalar World.node[58].nic.mac1609_4 ReceivedUnicastPackets 0
scalar World.node[58].nic.mac1609_4 ReceivedBroadcasts 547
scalar World.node[58].nic.mac1609_4 SentPackets 67
scalar World.node[58].nic.mac1609_4 SentAcknowledgements 0
scalar World.node[58].nic.mac1609_4 SNIRLostPackets 17
scalar World.node[58].nic.mac1609_4 RXTXLostPackets 24
scalar World.node[58].nic.mac1609_4 TotalLostPackets 41
scalar World.node[58].nic.mac1609_4 DroppedPacketsInMac 0
scalar World.node[58].nic.mac1609_4 TooLittleTime 0
scalar World.node[58].nic.mac1609_4 TimesIntoBackoff 68
scalar World.node[58].nic.mac1609_4 SlotsBackoff 531
scalar World.node[58].nic.mac1609_4 NumInternalContention 0
scalar World.node[58].nic.mac1609_4 totalBusyTime 0.099387
scalar World.node[52].appl.middleware.CaService #cam_sent 322
scalar World.node[52].appl.middleware.ExampleService #full_proofs 0
scalar World.node[52].appl.middleware.ExampleService #half_proofs 1
scalar World.node[52].appl.middleware.ExampleService #failed_proofs 0
scalar World.node[52].appl.middleware.ExampleService #loc_proof_send 19
scalar World.node[52].nic.phy80211p busyTime 0.0048052525252525
scalar World.node[52].nic.mac1609_4 ReceivedUnicastPackets 0
scalar World.node[52].nic.mac1609_4 ReceivedBroadcasts 2653
scalar World.node[52].nic.mac1609_4 SentPackets 341
scalar World.node[52].nic.mac1609_4 SentAcknowledgements 0
scalar World.node[52].nic.mac1609_4 SNIRLostPackets 315
scalar World.node[52].nic.mac1609_4 RXTXLostPackets 62
scalar World.node[52].nic.mac1609_4 TotalLostPackets 377
scalar World.node[52].nic.mac1609_4 DroppedPacketsInMac 0
scalar World.node[52].nic.mac1609_4 TooLittleTime 0
scalar World.node[52].nic.mac1609_4 TimesIntoBackoff 343
scalar World.node[52].nic.mac1609_4 SlotsBackoff 2560
scalar World.node[52].nic.mac1609_4 NumInternalContention 0
scalar World.node[52].nic.mac1609_4 totalBusyTime 0.521437118627
scalar World.node[46].appl.middleware.CaService #cam_sent 453
scalar World.node[46].appl.middleware.ExampleService #full_proofs 0
scalar World.node[46].appl.middleware.ExampleService #half_proofs 3
scalar World.node[46].appl.middleware.ExampleService #failed_proofs 0
scalar World.node[46].appl.middleware.ExampleService #loc_proof_send 41
scalar World.node[46].nic.phy80211p busyTime 0.0052524397905758
scalar World.node[46].nic.mac1609_4 ReceivedUnicastPackets 0
scalar World.node[46].nic.mac1609_4 ReceivedBroadcasts 5858
scalar World.node[46].nic.mac1609_4 SentPackets 494
scalar World.node[46].nic.mac1609_4 SentAcknowledgements 0
scalar World.node[46].nic.mac1609_4 SNIRLostPackets 384
scalar World.node[46].nic.mac1609_4 RXTXLostPackets 171
scalar World.node[46].nic.mac1609_4 TotalLostPackets 555
scalar World.node[46].nic.mac1609_4 DroppedPacketsInMac 0
scalar World.node[46].nic.mac1609_4 TooLittleTime 0
scalar World.node[46].nic.mac1609_4 TimesIntoBackoff 495
scalar World.node[46].nic.mac1609_4 SlotsBackoff 3691
scalar World.node[46].nic.mac1609_4 NumInternalContention 0
scalar World.node[46].nic.mac1609_4 totalBusyTime 1.064718939715
scalar World.node[47].appl.middleware.CaService #cam_sent 463
scalar World.node[47].appl.middleware.ExampleService #full_proofs 0
scalar World.node[47].appl.middleware.ExampleService #half_proofs 3
scalar World.node[47].appl.middleware.ExampleService #failed_proofs 0
scalar World.node[47].appl.middleware.ExampleService #loc_proof_send 37
scalar World.node[47].nic.phy80211p busyTime 0.0050351818181817
scalar World.node[47].nic.mac1609_4 ReceivedUnicastPackets 0
scalar World.node[47].nic.mac1609_4 ReceivedBroadcasts 5274
scalar World.node[47].nic.mac1609_4 SentPackets 500
scalar World.node[47].nic.mac1609_4 SentAcknowledgements 0
scalar World.node[47].nic.mac1609_4 SNIRLostPackets 236
scalar World.node[47].nic.mac1609_4 RXTXLostPackets 148
scalar World.node[47].nic.mac1609_4 TotalLostPackets 384
scalar World.node[47].nic.mac1609_4 DroppedPacketsInMac 0
scalar World.node[47].nic.mac1609_4 TooLittleTime 0
scalar World.node[47].nic.mac1609_4 TimesIntoBackoff 512
scalar World.node[47].nic.mac1609_4 SlotsBackoff 3786
scalar World.node[47].nic.mac1609_4 NumInternalContention 0
scalar World.node[47].nic.mac1609_4 totalBusyTime 0.953772267222
scalar World.node[56].appl.middleware.CaService #cam_sent 238
scalar World.node[56].appl.middleware.ExampleService #full_proofs 0
scalar World.node[56].appl.middleware.ExampleService #half_proofs 1
scalar World.node[56].appl.middleware.ExampleService #failed_proofs 0
scalar World.node[56].appl.middleware.ExampleService #loc_proof_send 17
scalar World.node[56].nic.phy80211p busyTime 0.0045535999999999
scalar World.node[56].nic.mac1609_4 ReceivedUnicastPackets 0
scalar World.node[56].nic.mac1609_4 ReceivedBroadcasts 2450
scalar World.node[56].nic.mac1609_4 SentPackets 255
scalar World.node[56].nic.mac1609_4 SentAcknowledgements 0
scalar World.node[56].nic.mac1609_4 SNIRLostPackets 103
scalar World.node[56].nic.mac1609_4 RXTXLostPackets 55
scalar World.node[56].nic.mac1609_4 TotalLostPackets 158
scalar World.node[56].nic.mac1609_4 DroppedPacketsInMac 0
scalar World.node[56].nic.mac1609_4 TooLittleTime 0
scalar World.node[56].nic.mac1609_4 TimesIntoBackoff 259
scalar World.node[56].nic.mac1609_4 SlotsBackoff 2032
scalar World.node[56].nic.mac1609_4 NumInternalContention 0
scalar World.node[56].nic.mac1609_4 totalBusyTime 0.445031002763
scalar World.node[39].appl.middleware.CaService #cam_sent 823
scalar World.node[39].appl.middleware.ExampleService #full_proofs 0
scalar World.node[39].appl.middleware.ExampleService #half_proofs 5
scalar World.node[39].appl.middleware.ExampleService #failed_proofs 0
scalar World.node[39].appl.middleware.ExampleService #loc_proof_send 62
scalar World.node[39].nic.phy80211p busyTime 0.005291598705501
scalar World.node[39].nic.mac1609_4 ReceivedUnicastPackets 0
scalar World.node[39].nic.mac1609_4 ReceivedBroadcasts 9380
scalar World.node[39].nic.mac1609_4 SentPackets 885
scalar World.node[39].nic.mac1609_4 SentAcknowledgements 0
scalar World.node[39].nic.mac1609_4 SNIRLostPackets 799
scalar World.node[39].nic.mac1609_4 RXTXLostPackets 243
scalar World.node[39].nic.mac1609_4 TotalLostPackets 1042
scalar World.node[39].nic.mac1609_4 DroppedPacketsInMac 0
scalar World.node[39].nic.mac1609_4 TooLittleTime 0
scalar World.node[39].nic.mac1609_4 TimesIntoBackoff 891
scalar World.node[39].nic.mac1609_4 SlotsBackoff 6802
scalar World.node[39].nic.mac1609_4 NumInternalContention 0
scalar World.node[39].nic.mac1609_4 totalBusyTime 1.745221997456
scalar World.node[53].appl.middleware.CaService #cam_sent 284
scalar World.node[53].appl.middleware.ExampleService #full_proofs 0
scalar World.node[53].appl.middleware.ExampleService #half_proofs 2
scalar World.node[53].appl.middleware.ExampleService #failed_proofs 0
scalar World.node[53].appl.middleware.ExampleService #loc_proof_send 23
scalar World.node[53].nic.phy80211p busyTime 0.0046543768115942
scalar World.node[53].nic.mac1609_4 ReceivedUnicastPackets 0
scalar World.node[53].nic.mac1609_4 ReceivedBroadcasts 3538
scalar World.node[53].nic.mac1609_4 SentPackets 307
scalar World.node[53].nic.mac1609_4 SentAcknowledgements 0
scalar World.node[53].nic.mac1609_4 SNIRLostPackets 455
scalar World.node[53].nic.mac1609_4 RXTXLostPackets 85
scalar World.node[53].nic.mac1609_4 TotalLostPackets 540
scalar World.node[53].nic.mac1609_4 DroppedPacketsInMac 0
scalar World.node[53].nic.mac1609_4 TooLittleTime 0
scalar World.node[53].nic.mac1609_4 TimesIntoBackoff 310
scalar World.node[53].nic.mac1609_4 SlotsBackoff 2159
scalar World.node[53].nic.mac1609_4 NumInternalContention 0
scalar World.node[53].nic.mac1609_4 totalBusyTime 0.683555283887
scalar World.node[50].appl.middleware.CaService #cam_sent 472
scalar World.node[50].appl.middleware.ExampleService #full_proofs 0
scalar World.node[50].appl.middleware.ExampleService #half_proofs 3
scalar World.node[50].appl.middleware.ExampleService #failed_proofs 0
scalar World.node[50].appl.middleware.ExampleService #loc_proof_send 30
scalar World.node[50].nic.phy80211p busyTime 0.0045192928176795
scalar World.node[50].nic.mac1609_4 ReceivedUnicastPackets 0
scalar World.node[50].nic.mac1609_4 ReceivedBroadcasts 4573
scalar World.node[50].nic.mac1609_4 SentPackets 502
scalar World.node[50].nic.mac1609_4 SentAcknowledgements 0
scalar World.node[50].nic.mac1609_4 SNIRLostPackets 510
scalar World.node[50].nic.mac1609_4 RXTXLostPackets 110
scalar World.node[50].nic.mac1609_4 TotalLostPackets 620
scalar World.node[50].nic.mac1609_4 DroppedPacketsInMac 0
scalar World.node[50].nic.mac1609_4 TooLittleTime 0
scalar World.node[50].nic.mac1609_4 TimesIntoBackoff 508
scalar World.node[50].nic.mac1609_4 SlotsBackoff 3697
scalar World.node[50].nic.mac1609_4 NumInternalContention 0
scalar World.node[50].nic.mac1609_4 totalBusyTime 0.888598291979
scalar World.node[57].appl.middleware.CaService #cam_sent 403
scalar World.node[57].appl.middleware.ExampleService #full_proofs 0
scalar World.node[57].appl.middleware.ExampleService #half_proofs 2
scalar World.node[57].appl.middleware.ExampleService #failed_proofs 0
scalar World.node[57].appl.middleware.ExampleService #loc_proof_send 22
scalar World.node[57].nic.phy80211p busyTime 0.0039424705882352
scalar World.node[57].nic.mac1609_4 ReceivedUnicastPackets 0
scalar World.node[57].nic.mac1609_4 ReceivedBroadcasts 3202
scalar World.node[57].nic.mac1609_4 SentPackets 425
scalar World.node[57].nic.mac1609_4 SentAcknowledgements 0
scalar World.node[57].nic.mac1609_4 SNIRLostPackets 133
scalar World.node[57].nic.mac1609_4 RXTXLostPackets 44
scalar World.node[57].nic.mac1609_4 TotalLostPackets 177
scalar World.node[57].nic.mac1609_4 DroppedPacketsInMac 0
scalar World.node[57].nic.mac1609_4 TooLittleTime 0
scalar World.node[57].nic.mac1609_4 TimesIntoBackoff 431
scalar World.node[57].nic.mac1609_4 SlotsBackoff 3214
scalar World.node[57].nic.mac1609_4 NumInternalContention 0
scalar World.node[57].nic.mac1609_4 totalBusyTime 0.597529133555
scalar World.node[51].appl.middleware.CaService #cam_sent 505
scalar World.node[51].appl.middleware.ExampleService #full_proofs 0
scalar World.node[51].appl.middleware.ExampleService #half_proofs 3
scalar World.node[51].appl.middleware.ExampleService #failed_proofs 1
scalar World.node[51].appl.middleware.ExampleService #loc_proof_send 33
scalar World.node[51].nic.phy80211p busyTime 0.0042668301886792
scalar World.node[51].nic.mac1609_4 ReceivedUnicastPackets 0
scalar World.node[51].nic.mac1609_4 ReceivedBroadcasts 5077
scalar World.node[51].nic.mac1609_4 SentPackets 538
scalar World.node[51].nic.mac1609_4 SentAcknowledgements 0
scalar World.node[51].nic.mac1609_4 SNIRLostPackets 547
scalar World.node[51].nic.mac1609_4 RXTXLostPackets 86
scalar World.node[51].nic.mac1609_4 TotalLostPackets 633
scalar World.node[51].nic.mac1609_4 DroppedPacketsInMac 0
scalar World.node[51].nic.mac1609_4 TooLittleTime 0
scalar World.node[51].nic.mac1609_4 TimesIntoBackoff 541
scalar World.node[51].nic.mac1609_4 SlotsBackoff 3893
scalar World.node[51].nic.mac1609_4 NumInternalContention 0
scalar World.node[51].nic.mac1609_4 totalBusyTime 0.978226189365
scalar World.node[59].appl.middleware.CaService #cam_sent 418
scalar World.node[59].appl.middleware.ExampleService #full_proofs 1
scalar World.node[59].appl.middleware.ExampleService #half_proofs 1
scalar World.node[59].appl.middleware.ExampleService #failed_proofs 0
scalar World.node[59].appl.middleware.ExampleService #loc_proof_send 13
scalar World.node[59].nic.phy80211p busyTime 0.003398656
scalar World.node[59].nic.mac1609_4 ReceivedUnicastPackets 0
scalar World.node[59].nic.mac1609_4 ReceivedBroadcasts 2239
scalar World.node[59].nic.mac1609_4 SentPackets 431
scalar World.node[59].nic.mac1609_4 SentAcknowledgements 0
scalar World.node[59].nic.mac1609_4 SNIRLostPackets 399
scalar World.node[59].nic.mac1609_4 RXTXLostPackets 10
scalar World.node[59].nic.mac1609_4 TotalLostPackets 409
scalar World.node[59].nic.mac1609_4 DroppedPacketsInMac 0
scalar World.node[59].nic.mac1609_4 TooLittleTime 0
scalar World.node[59].nic.mac1609_4 TimesIntoBackoff 431
scalar World.node[59].nic.mac1609_4 SlotsBackoff 3175
scalar World.node[59].nic.mac1609_4 NumInternalContention 0
scalar World.node[59].nic.mac1609_4 totalBusyTime 0.488879
scalar World.node[54].appl.middleware.CaService #cam_sent 494
scalar World.node[54].appl.middleware.ExampleService #full_proofs 0
scalar World.node[54].appl.middleware.ExampleService #half_proofs 3
scalar World.node[54].appl.middleware.ExampleService #failed_proofs 0
scalar World.node[54].appl.middleware.ExampleService #loc_proof_send 29
scalar World.node[54].nic.phy80211p busyTime 0.0040118172588832
scalar World.node[54].nic.mac1609_4 ReceivedUnicastPackets 0
scalar World.node[54].nic.mac1609_4 ReceivedBroadcasts 4482
scalar World.node[54].nic.mac1609_4 SentPackets 523
scalar World.node[54].nic.mac1609_4 SentAcknowledgements 0
scalar World.node[54].nic.mac1609_4 SNIRLostPackets 407
scalar World.node[54].nic.mac1609_4 RXTXLostPackets 95
scalar World.node[54].nic.mac1609_4 TotalLostPackets 502
scalar World.node[54].nic.mac1609_4 DroppedPacketsInMac 0
scalar World.node[54].nic.mac1609_4 TooLittleTime 0
scalar World.node[54].nic.mac1609_4 TimesIntoBackoff 526
scalar World.node[54].nic.mac1609_4 SlotsBackoff 3988
scalar World.node[54].nic.mac1609_4 NumInternalContention 0
scalar World.node[54].nic.mac1609_4 totalBusyTime 0.869035394887
scalar World.node[55].appl.middleware.CaService #cam_sent 408
scalar World.node[55].appl.middleware.ExampleService #full_proofs 0
scalar World.node[55].appl.middleware.ExampleService #half_proofs 4
scalar World.node[55].appl.middleware.ExampleService #failed_proofs 0
scalar World.node[55].appl.middleware.ExampleService #loc_proof_send 29
scalar World.node[55].nic.phy80211p busyTime 0.0039618492462311
scalar World.node[55].nic.mac1609_4 ReceivedUnicastPackets 0
scalar World.node[55].nic.mac1609_4 ReceivedBroadcasts 4569
scalar World.node[55].nic.mac1609_4 SentPackets 437
scalar World.node[55].nic.mac1609_4 SentAcknowledgements 0
scalar World.node[55].nic.mac1609_4 SNIRLostPackets 323
scalar World.node[55].nic.mac1609_4 RXTXLostPackets 71
scalar World.node[55].nic.mac1609_4 TotalLostPackets 394
scalar World.node[55].nic.mac1609_4 DroppedPacketsInMac 0
scalar World.node[55].nic.mac1609_4 TooLittleTime 0
scalar World.node[55].nic.mac1609_4 TimesIntoBackoff 439
scalar World.node[55].nic.mac1609_4 SlotsBackoff 3380
scalar World.node[55].nic.mac1609_4 NumInternalContention 0
scalar World.node[55].nic.mac1609_4 totalBusyTime 0.850501160257
scalar World.node[64].appl.middleware.CaService #cam_sent 182
scalar World.node[64].appl.middleware.ExampleService #full_proofs 0
scalar World.node[64].appl.middleware.ExampleService #half_proofs 1
scalar World.node[64].appl.middleware.ExampleService #failed_proofs 0
scalar World.node[64].appl.middleware.ExampleService #loc_proof_send 7
scalar World.node[64].nic.phy80211p busyTime 0.0031965925925926
scalar World.node[64].nic.mac1609_4 ReceivedUnicastPackets 0
scalar World.node[64].nic.mac1609_4 ReceivedBroadcasts 932
scalar World.node[64].nic.mac1609_4 SentPackets 189
scalar World.node[64].nic.mac1609_4 SentAcknowledgements 0
scalar World.node[64].nic.mac1609_4 SNIRLostPackets 137
scalar World.node[64].nic.mac1609_4 RXTXLostPackets 9
scalar World.node[64].nic.mac1609_4 TotalLostPackets 146
scalar World.node[64].nic.mac1609_4 DroppedPacketsInMac 0
scalar World.node[64].nic.mac1609_4 TooLittleTime 0
scalar World.node[64].nic.mac1609_4 TimesIntoBackoff 190
scalar World.node[64].nic.mac1609_4 SlotsBackoff 1455
scalar World.node[64].nic.mac1609_4 NumInternalContention 0
scalar World.node[64].nic.mac1609_4 totalBusyTime 0.201773
scalar World.node[49].appl.middleware.CaService #cam_sent 664
scalar World.node[49].appl.middleware.ExampleService #full_proofs 0
scalar World.node[49].appl.middleware.ExampleService #half_proofs 5
scalar World.node[49].appl.middleware.ExampleService #failed_proofs 1
scalar World.node[49].appl.middleware.ExampleService #loc_proof_send 44
scalar World.node[49].nic.phy80211p busyTime 0.0041067160493824
scalar World.node[49].nic.mac1609_4 ReceivedUnicastPackets 0
scalar World.node[49].nic.mac1609_4 ReceivedBroadcasts 6583
scalar World.node[49].nic.mac1609_4 SentPackets 708
scalar World.node[49].nic.mac1609_4 SentAcknowledgements 0
scalar World.node[49].nic.mac1609_4 SNIRLostPackets 1663
scalar World.node[49].nic.mac1609_4 RXTXLostPackets 135
scalar World.node[49].nic.mac1609_4 TotalLostPackets 1798
scalar World.node[49].nic.mac1609_4 DroppedPacketsInMac 0
scalar World.node[49].nic.mac1609_4 TooLittleTime 0
scalar World.node[49].nic.mac1609_4 TimesIntoBackoff 714
scalar World.node[49].nic.mac1609_4 SlotsBackoff 5261
scalar World.node[49].nic.mac1609_4 NumInternalContention 0
scalar World.node[49].nic.mac1609_4 totalBusyTime 1.431196278465
scalar World.node[60].appl.middleware.CaService #cam_sent 452
scalar World.node[60].appl.middleware.ExampleService #full_proofs 0
scalar World.node[60].appl.middleware.ExampleService #half_proofs 2
scalar World.node[60].appl.middleware.ExampleService #failed_proofs 0
scalar World.node[60].appl.middleware.ExampleService #loc_proof_send 20
scalar World.node[60].nic.phy80211p busyTime 0.0031946315789473
scalar World.node[60].nic.mac1609_4 ReceivedUnicastPackets 0
scalar World.node[60].nic.mac1609_4 ReceivedBroadcasts 2731
scalar World.node[60].nic.mac1609_4 SentPackets 472
scalar World.node[60].nic.mac1609_4 SentAcknowledgements 0
scalar World.node[60].nic.mac1609_4 SNIRLostPackets 270
scalar World.node[60].nic.mac1609_4 RXTXLostPackets 48
scalar World.node[60].nic.mac1609_4 TotalLostPackets 318
scalar World.node[60].nic.mac1609_4 DroppedPacketsInMac 0
scalar World.node[60].nic.mac1609_4 TooLittleTime 0
scalar World.node[60].nic.mac1609_4 TimesIntoBackoff 478
scalar World.node[60].nic.mac1609_4 SlotsBackoff 3400
scalar World.node[60].nic.mac1609_4 NumInternalContention 0
scalar World.node[60].nic.mac1609_4 totalBusyTime 0.559496
scalar World.node[61].appl.middleware.CaService #cam_sent 425
scalar World.node[61].appl.middleware.ExampleService #full_proofs 0
scalar World.node[61].appl.middleware.ExampleService #half_proofs 2
scalar World.node[61].appl.middleware.ExampleService #failed_proofs 1
scalar World.node[61].appl.middleware.ExampleService #loc_proof_send 20
scalar World.node[61].nic.phy80211p busyTime 0.0038036626506024
scalar World.node[61].nic.mac1609_4 ReceivedUnicastPackets 0
scalar World.node[61].nic.mac1609_4 ReceivedBroadcasts 3047
scalar World.node[61].nic.mac1609_4 SentPackets 445
scalar World.node[61].nic.mac1609_4 SentAcknowledgements 0
scalar World.node[61].nic.mac1609_4 SNIRLostPackets 857
scalar World.node[61].nic.mac1609_4 RXTXLostPackets 67
scalar World.node[61].nic.mac1609_4 TotalLostPackets 924
scalar World.node[61].nic.mac1609_4 DroppedPacketsInMac 0
scalar World.node[61].nic.mac1609_4 TooLittleTime 0
scalar World.node[61].nic.mac1609_4 TimesIntoBackoff 450
scalar World.node[61].nic.mac1609_4 SlotsBackoff 3547
scalar World.node[61].nic.mac1609_4 NumInternalContention 0
scalar World.node[61].nic.mac1609_4 totalBusyTime 0.699373087304
scalar World.node[65].appl.middleware.CaService #cam_sent 404
scalar World.node[65].appl.middleware.ExampleService #full_proofs 0
scalar World.node[65].appl.middleware.ExampleService #half_proofs 2
scalar World.node[65].appl.middleware.ExampleService #failed_proofs 0
scalar World.node[65].appl.middleware.ExampleService #loc_proof_send 15
scalar World.node[65].nic.phy80211p busyTime 0.0039020165289256
scalar World.node[65].nic.mac1609_4 ReceivedUnicastPackets 0
scalar World.node[65].nic.mac1609_4 ReceivedBroadcasts 2417
scalar World.node[65].nic.mac1609_4 SentPackets 419
scalar World.node[65].nic.mac1609_4 SentAcknowledgements 0
scalar World.node[65].nic.mac1609_4 SNIRLostPackets 519
scalar World.node[65].nic.mac1609_4 RXTXLostPackets 19
scalar World.node[65].nic.mac1609_4 TotalLostPackets 538
scalar World.node[65].nic.mac1609_4 DroppedPacketsInMac 0
scalar World.node[65].nic.mac1609_4 TooLittleTime 0
scalar World.node[65].nic.mac1609_4 TimesIntoBackoff 419
scalar World.node[65].nic.mac1609_4 SlotsBackoff 3294
scalar World.node[65].nic.mac1609_4 NumInternalContention 0
scalar World.node[65].nic.mac1609_4 totalBusyTime 0.532091
scalar World.node[66].appl.middleware.CaService #cam_sent 351
scalar World.node[66].appl.middleware.ExampleService #full_proofs 0
scalar World.node[66].appl.middleware.ExampleService #half_proofs 2
scalar World.node[66].appl.middleware.ExampleService #failed_proofs 0
scalar World.node[66].appl.middleware.ExampleService #loc_proof_send 18
scalar World.node[66].nic.phy80211p busyTime 0.0042124227642276
scalar World.node[66].nic.mac1609_4 ReceivedUnicastPackets 0
scalar World.node[66].nic.mac1609_4 ReceivedBroadcasts 2804
scalar World.node[66].nic.mac1609_4 SentPackets 369
scalar World.node[66].nic.mac1609_4 SentAcknowledgements 0
scalar World.node[66].nic.mac1609_4 SNIRLostPackets 397
scalar World.node[66].nic.mac1609_4 RXTXLostPackets 60
scalar World.node[66].nic.mac1609_4 TotalLostPackets 457
scalar World.node[66].nic.mac1609_4 DroppedPacketsInMac 0
scalar World.node[66].nic.mac1609_4 TooLittleTime 0
scalar World.node[66].nic.mac1609_4 TimesIntoBackoff 372
scalar World.node[66].nic.mac1609_4 SlotsBackoff 2746
scalar World.node[66].nic.mac1609_4 NumInternalContention 0
scalar World.node[66].nic.mac1609_4 totalBusyTime 0.573769215689
scalar World.node[67].appl.middleware.CaService #cam_sent 280
scalar World.node[67].appl.middleware.ExampleService #full_proofs 0
scalar World.node[67].appl.middleware.ExampleService #half_proofs 1
scalar World.node[67].appl.middleware.ExampleService #failed_proofs 0
scalar World.node[67].appl.middleware.ExampleService #loc_proof_send 12
scalar World.node[67].nic.phy80211p busyTime 0.0043439999999999
scalar World.node[67].nic.mac1609_4 ReceivedUnicastPackets 0
scalar World.node[67].nic.mac1609_4 ReceivedBroadcasts 2201
scalar World.node[67].nic.mac1609_4 SentPackets 292
scalar World.node[67].nic.mac1609_4 SentAcknowledgements 0
scalar World.node[67].nic.mac1609_4 SNIRLostPackets 813
scalar World.node[67].nic.mac1609_4 RXTXLostPackets 45
scalar World.node[67].nic.mac1609_4 TotalLostPackets 858
scalar World.node[67].nic.mac1609_4 DroppedPacketsInMac 0
scalar World.node[67].nic.mac1609_4 TooLittleTime 0
scalar World.node[67].nic.mac1609_4 TimesIntoBackoff 293
scalar World.node[67].nic.mac1609_4 SlotsBackoff 2238
scalar World.node[67].nic.mac1609_4 NumInternalContention 0
scalar World.node[67].nic.mac1609_4 totalBusyTime 0.528916018742
scalar World.node[62].appl.middleware.CaService #cam_sent 637
scalar World.node[62].appl.middleware.ExampleService #full_proofs 0
scalar World.node[62].appl.middleware.ExampleService #half_proofs 3
scalar World.node[62].appl.middleware.ExampleService #failed_proofs 0
scalar World.node[62].appl.middleware.ExampleService #loc_proof_send 32
scalar World.node[62].nic.phy80211p busyTime 0.0039952307692307
scalar World.node[62].nic.mac1609_4 ReceivedUnicastPackets 0
scalar World.node[62].nic.mac1609_4 ReceivedBroadcasts 4644
scalar World.node[62].nic.mac1609_4 SentPackets 669
scalar World.node[62].nic.mac1609_4 SentAcknowledgements 0
scalar World.node[62].nic.mac1609_4 SNIRLostPackets 499
scalar World.node[62].nic.mac1609_4 RXTXLostPackets 81
scalar World.node[62].nic.mac1609_4 TotalLostPackets 580
scalar World.node[62].nic.mac1609_4 DroppedPacketsInMac 0
scalar World.node[62].nic.mac1609_4 TooLittleTime 0
scalar World.node[62].nic.mac1609_4 TimesIntoBackoff 677
scalar World.node[62].nic.mac1609_4 SlotsBackoff 5168
scalar World.node[62].nic.mac1609_4 NumInternalContention 0
scalar World.node[62].nic.mac1609_4 totalBusyTime 0.931133133994
scalar World.node[75].appl.middleware.CaService #cam_sent 158
scalar World.node[75].appl.middleware.ExampleService #full_proofs 0
scalar World.node[75].appl.middleware.ExampleService #half_proofs 1
scalar World.node[75].appl.middleware.ExampleService #failed_proofs 0
scalar World.node[75].appl.middleware.ExampleService #loc_proof_send 8
scalar World.node[75].nic.phy80211p busyTime 0.0048862978723404
scalar World.node[75].nic.mac1609_4 ReceivedUnicastPackets 0
scalar World.node[75].nic.mac1609_4 ReceivedBroadcasts 1093
scalar World.node[75].nic.mac1609_4 SentPackets 166
scalar World.node[75].nic.mac1609_4 SentAcknowledgements 0
scalar World.node[75].nic.mac1609_4 SNIRLostPackets 336
scalar World.node[75].nic.mac1609_4 RXTXLostPackets 12
scalar World.node[75].nic.mac1609_4 TotalLostPackets 348
scalar World.node[75].nic.mac1609_4 DroppedPacketsInMac 0
scalar World.node[75].nic.mac1609_4 TooLittleTime 0
scalar World.node[75].nic.mac1609_4 TimesIntoBackoff 166
scalar World.node[75].nic.mac1609_4 SlotsBackoff 1266
scalar World.node[75].nic.mac1609_4 NumInternalContention 0
scalar World.node[75].nic.mac1609_4 totalBusyTime 0.252814
scalar World.node[63].appl.middleware.CaService #cam_sent 523
scalar World.node[63].appl.middleware.ExampleService #full_proofs 0
scalar World.node[63].appl.middleware.ExampleService #half_proofs 3
scalar World.node[63].appl.middleware.ExampleService #failed_proofs 0
scalar World.node[63].appl.middleware.ExampleService #loc_proof_send 32
scalar World.node[63].nic.phy80211p busyTime 0.0042246124401914
scalar World.node[63].nic.mac1609_4 ReceivedUnicastPackets 0
scalar World.node[63].nic.mac1609_4 ReceivedBroadcasts 4987
scalar World.node[63].nic.mac1609_4 SentPackets 555
scalar World.node[63].nic.mac1609_4 SentAcknowledgements 0
scalar World.node[63].nic.mac1609_4 SNIRLostPackets 476
scalar World.node[63].nic.mac1609_4 RXTXLostPackets 74
scalar World.node[63].nic.mac1609_4 TotalLostPackets 550
[...]
scalar World.node[222].nic.mac1609_4 SlotsBackoff 4404
scalar World.node[222].nic.mac1609_4 NumInternalContention 0
scalar World.node[222].nic.mac1609_4 totalBusyTime 0.915289008104
scalar World.node[224].appl.middleware.CaService #cam_sent 469
scalar World.node[224].appl.middleware.ExampleService #full_proofs 0
scalar World.node[224].appl.middleware.ExampleService #half_proofs 2
scalar World.node[224].appl.middleware.ExampleService #failed_proofs 1
scalar World.node[224].appl.middleware.ExampleService #loc_proof_send 23
scalar World.node[224].nic.phy80211p busyTime 0.0044535696202531
scalar World.node[224].nic.mac1609_4 ReceivedUnicastPackets 0
scalar World.node[224].nic.mac1609_4 ReceivedBroadcasts 3764
scalar World.node[224].nic.mac1609_4 SentPackets 492
scalar World.node[224].nic.mac1609_4 SentAcknowledgements 0
scalar World.node[224].nic.mac1609_4 SNIRLostPackets 591
scalar World.node[224].nic.mac1609_4 RXTXLostPackets 86
scalar World.node[224].nic.mac1609_4 TotalLostPackets 677
scalar World.node[224].nic.mac1609_4 DroppedPacketsInMac 0
scalar World.node[224].nic.mac1609_4 TooLittleTime 0
scalar World.node[224].nic.mac1609_4 TimesIntoBackoff 495
scalar World.node[224].nic.mac1609_4 SlotsBackoff 3610
scalar World.node[224].nic.mac1609_4 NumInternalContention 0
scalar World.node[224].nic.mac1609_4 totalBusyTime 0.778004136957
scalar World.node[232].appl.middleware.CaService #cam_sent 138
scalar World.node[232].appl.middleware.ExampleService #full_proofs 0
scalar World.node[232].appl.middleware.ExampleService #half_proofs 1
scalar World.node[232].appl.middleware.ExampleService #failed_proofs 0
scalar World.node[232].appl.middleware.ExampleService #loc_proof_send 5
scalar World.node[232].nic.phy80211p busyTime 0.0051242926829268
scalar World.node[232].nic.mac1609_4 ReceivedUnicastPackets 0
scalar World.node[232].nic.mac1609_4 ReceivedBroadcasts 833
scalar World.node[232].nic.mac1609_4 SentPackets 143
scalar World.node[232].nic.mac1609_4 SentAcknowledgements 0
scalar World.node[232].nic.mac1609_4 SNIRLostPackets 479
scalar World.node[232].nic.mac1609_4 RXTXLostPackets 7
scalar World.node[232].nic.mac1609_4 TotalLostPackets 486
scalar World.node[232].nic.mac1609_4 DroppedPacketsInMac 0
scalar World.node[232].nic.mac1609_4 TooLittleTime 0
scalar World.node[232].nic.mac1609_4 TimesIntoBackoff 143
scalar World.node[232].nic.mac1609_4 SlotsBackoff 1081
scalar World.node[232].nic.mac1609_4 NumInternalContention 0
scalar World.node[232].nic.mac1609_4 totalBusyTime 0.230039
scalar World.node[230].appl.middleware.CaService #cam_sent 278
scalar World.node[230].appl.middleware.ExampleService #full_proofs 0
scalar World.node[230].appl.middleware.ExampleService #half_proofs 1
scalar World.node[230].appl.middleware.ExampleService #failed_proofs 0
scalar World.node[230].appl.middleware.ExampleService #loc_proof_send 13
scalar World.node[230].nic.phy80211p busyTime 0.004940048192771
scalar World.node[230].nic.mac1609_4 ReceivedUnicastPackets 0
scalar World.node[230].nic.mac1609_4 ReceivedBroadcasts 2189
scalar World.node[230].nic.mac1609_4 SentPackets 291
scalar World.node[230].nic.mac1609_4 SentAcknowledgements 0
scalar World.node[230].nic.mac1609_4 SNIRLostPackets 355
scalar World.node[230].nic.mac1609_4 RXTXLostPackets 38
scalar World.node[230].nic.mac1609_4 TotalLostPackets 393
scalar World.node[230].nic.mac1609_4 DroppedPacketsInMac 0
scalar World.node[230].nic.mac1609_4 TooLittleTime 0
scalar World.node[230].nic.mac1609_4 TimesIntoBackoff 295
scalar World.node[230].nic.mac1609_4 SlotsBackoff 2234
scalar World.node[230].nic.mac1609_4 NumInternalContention 0
scalar World.node[230].nic.mac1609_4 totalBusyTime 0.452563090834
scalar World.node[227].appl.middleware.CaService #cam_sent 371
scalar World.node[227].appl.middleware.ExampleService #full_proofs 0
scalar World.node[227].appl.middleware.ExampleService #half_proofs 3
scalar World.node[227].appl.middleware.ExampleService #failed_proofs 0
scalar World.node[227].appl.middleware.ExampleService #loc_proof_send 24
scalar World.node[227].nic.phy80211p busyTime 0.0047535522388059
scalar World.node[227].nic.mac1609_4 ReceivedUnicastPackets 0
scalar World.node[227].nic.mac1609_4 ReceivedBroadcasts 3499
scalar World.node[227].nic.mac1609_4 SentPackets 395
scalar World.node[227].nic.mac1609_4 SentAcknowledgements 0
scalar World.node[227].nic.mac1609_4 SNIRLostPackets 449
scalar World.node[227].nic.mac1609_4 RXTXLostPackets 50
scalar World.node[227].nic.mac1609_4 TotalLostPackets 499
scalar World.node[227].nic.mac1609_4 DroppedPacketsInMac 0
scalar World.node[227].nic.mac1609_4 TooLittleTime 0
scalar World.node[227].nic.mac1609_4 TimesIntoBackoff 396
scalar World.node[227].nic.mac1609_4 SlotsBackoff 3000
scalar World.node[227].nic.mac1609_4 NumInternalContention 0
scalar World.node[227].nic.mac1609_4 totalBusyTime 0.693875
scalar World.node[226].appl.middleware.CaService #cam_sent 384
scalar World.node[226].appl.middleware.ExampleService #full_proofs 0
scalar World.node[226].appl.middleware.ExampleService #half_proofs 2
scalar World.node[226].appl.middleware.ExampleService #failed_proofs 0
scalar World.node[226].appl.middleware.ExampleService #loc_proof_send 18
scalar World.node[226].nic.phy80211p busyTime 0.0046544533333333
scalar World.node[226].nic.mac1609_4 ReceivedUnicastPackets 0
scalar World.node[226].nic.mac1609_4 ReceivedBroadcasts 3203
scalar World.node[226].nic.mac1609_4 SentPackets 402
scalar World.node[226].nic.mac1609_4 SentAcknowledgements 0
scalar World.node[226].nic.mac1609_4 SNIRLostPackets 1134
scalar World.node[226].nic.mac1609_4 RXTXLostPackets 37
scalar World.node[226].nic.mac1609_4 TotalLostPackets 1171
scalar World.node[226].nic.mac1609_4 DroppedPacketsInMac 0
scalar World.node[226].nic.mac1609_4 TooLittleTime 0
scalar World.node[226].nic.mac1609_4 TimesIntoBackoff 402
scalar World.node[226].nic.mac1609_4 SlotsBackoff 3034
scalar World.node[226].nic.mac1609_4 NumInternalContention 0
scalar World.node[226].nic.mac1609_4 totalBusyTime 0.753730002278
scalar World.node[228].appl.middleware.CaService #cam_sent 336
scalar World.node[228].appl.middleware.ExampleService #full_proofs 0
scalar World.node[228].appl.middleware.ExampleService #half_proofs 2
scalar World.node[228].appl.middleware.ExampleService #failed_proofs 0
scalar World.node[228].appl.middleware.ExampleService #loc_proof_send 18
scalar World.node[228].nic.phy80211p busyTime 0.0046094193548386
scalar World.node[228].nic.mac1609_4 ReceivedUnicastPackets 0
scalar World.node[228].nic.mac1609_4 ReceivedBroadcasts 2538
scalar World.node[228].nic.mac1609_4 SentPackets 354
scalar World.node[228].nic.mac1609_4 SentAcknowledgements 0
scalar World.node[228].nic.mac1609_4 SNIRLostPackets 1010
scalar World.node[228].nic.mac1609_4 RXTXLostPackets 45
scalar World.node[228].nic.mac1609_4 TotalLostPackets 1055
scalar World.node[228].nic.mac1609_4 DroppedPacketsInMac 0
scalar World.node[228].nic.mac1609_4 TooLittleTime 0
scalar World.node[228].nic.mac1609_4 TimesIntoBackoff 356
scalar World.node[228].nic.mac1609_4 SlotsBackoff 2689
scalar World.node[228].nic.mac1609_4 NumInternalContention 0
scalar World.node[228].nic.mac1609_4 totalBusyTime 0.622506
scalar World.node[225].appl.middleware.CaService #cam_sent 472
scalar World.node[225].appl.middleware.ExampleService #full_proofs 0
scalar World.node[225].appl.middleware.ExampleService #half_proofs 3
scalar World.node[225].appl.middleware.ExampleService #failed_proofs 0
scalar World.node[225].appl.middleware.ExampleService #loc_proof_send 29
scalar World.node[225].nic.phy80211p busyTime 0.004359595505618
scalar World.node[225].nic.mac1609_4 ReceivedUnicastPackets 0
scalar World.node[225].nic.mac1609_4 ReceivedBroadcasts 4484
scalar World.node[225].nic.mac1609_4 SentPackets 501
scalar World.node[225].nic.mac1609_4 SentAcknowledgements 0
scalar World.node[225].nic.mac1609_4 SNIRLostPackets 316
scalar World.node[225].nic.mac1609_4 RXTXLostPackets 91
scalar World.node[225].nic.mac1609_4 TotalLostPackets 407
scalar World.node[225].nic.mac1609_4 DroppedPacketsInMac 0
scalar World.node[225].nic.mac1609_4 TooLittleTime 0
scalar World.node[225].nic.mac1609_4 TimesIntoBackoff 637
scalar World.node[225].nic.mac1609_4 SlotsBackoff 4713
scalar World.node[225].nic.mac1609_4 NumInternalContention 0
scalar World.node[225].nic.mac1609_4 totalBusyTime 0.85170155137
scalar World.node[234].appl.middleware.CaService #cam_sent 296
scalar World.node[234].appl.middleware.ExampleService #full_proofs 0
scalar World.node[234].appl.middleware.ExampleService #half_proofs 2
scalar World.node[234].appl.middleware.ExampleService #failed_proofs 0
scalar World.node[234].appl.middleware.ExampleService #loc_proof_send 10
scalar World.node[234].nic.phy80211p busyTime 0.0034861855670103
scalar World.node[234].nic.mac1609_4 ReceivedUnicastPackets 0
scalar World.node[234].nic.mac1609_4 ReceivedBroadcasts 1719
scalar World.node[234].nic.mac1609_4 SentPackets 306
scalar World.node[234].nic.mac1609_4 SentAcknowledgements 0
scalar World.node[234].nic.mac1609_4 SNIRLostPackets 373
scalar World.node[234].nic.mac1609_4 RXTXLostPackets 30
scalar World.node[234].nic.mac1609_4 TotalLostPackets 403
scalar World.node[234].nic.mac1609_4 DroppedPacketsInMac 0
scalar World.node[234].nic.mac1609_4 TooLittleTime 0
scalar World.node[234].nic.mac1609_4 TimesIntoBackoff 309
scalar World.node[234].nic.mac1609_4 SlotsBackoff 2354
scalar World.node[234].nic.mac1609_4 NumInternalContention 0
scalar World.node[234].nic.mac1609_4 totalBusyTime 0.38409
scalar World.node[237].appl.middleware.CaService #cam_sent 144
scalar World.node[237].appl.middleware.ExampleService #full_proofs 0
scalar World.node[237].appl.middleware.ExampleService #half_proofs 0
scalar World.node[237].appl.middleware.ExampleService #failed_proofs 1
scalar World.node[237].appl.middleware.ExampleService #loc_proof_send 6
scalar World.node[237].nic.phy80211p busyTime 0.0032013023255814
scalar World.node[237].nic.mac1609_4 ReceivedUnicastPackets 0
scalar World.node[237].nic.mac1609_4 ReceivedBroadcasts 453
scalar World.node[237].nic.mac1609_4 SentPackets 150
scalar World.node[237].nic.mac1609_4 SentAcknowledgements 0
scalar World.node[237].nic.mac1609_4 SNIRLostPackets 398
scalar World.node[237].nic.mac1609_4 RXTXLostPackets 31
scalar World.node[237].nic.mac1609_4 TotalLostPackets 429
scalar World.node[237].nic.mac1609_4 DroppedPacketsInMac 0
scalar World.node[237].nic.mac1609_4 TooLittleTime 0
scalar World.node[237].nic.mac1609_4 TimesIntoBackoff 153
scalar World.node[237].nic.mac1609_4 SlotsBackoff 1144
scalar World.node[237].nic.mac1609_4 NumInternalContention 0
scalar World.node[237].nic.mac1609_4 totalBusyTime 0.160014
scalar World.node[231].appl.middleware.CaService #cam_sent 388
scalar World.node[231].appl.middleware.ExampleService #full_proofs 0
scalar World.node[231].appl.middleware.ExampleService #half_proofs 1
scalar World.node[231].appl.middleware.ExampleService #failed_proofs 1
scalar World.node[231].appl.middleware.ExampleService #loc_proof_send 21
scalar World.node[231].nic.phy80211p busyTime 0.0038080536912751
scalar World.node[231].nic.mac1609_4 ReceivedUnicastPackets 0
scalar World.node[231].nic.mac1609_4 ReceivedBroadcasts 3339
scalar World.node[231].nic.mac1609_4 SentPackets 409
scalar World.node[231].nic.mac1609_4 SentAcknowledgements 0
scalar World.node[231].nic.mac1609_4 SNIRLostPackets 174
scalar World.node[231].nic.mac1609_4 RXTXLostPackets 38
scalar World.node[231].nic.mac1609_4 TotalLostPackets 212
scalar World.node[231].nic.mac1609_4 DroppedPacketsInMac 0
scalar World.node[231].nic.mac1609_4 TooLittleTime 0
scalar World.node[231].nic.mac1609_4 TimesIntoBackoff 410
scalar World.node[231].nic.mac1609_4 SlotsBackoff 3057
scalar World.node[231].nic.mac1609_4 NumInternalContention 0
scalar World.node[231].nic.mac1609_4 totalBusyTime 0.626553
scalar World.node[235].appl.middleware.CaService #cam_sent 377
scalar World.node[235].appl.middleware.ExampleService #full_proofs 0
scalar World.node[235].appl.middleware.ExampleService #half_proofs 1
scalar World.node[235].appl.middleware.ExampleService #failed_proofs 1
scalar World.node[235].appl.middleware.ExampleService #loc_proof_send 13
scalar World.node[235].nic.phy80211p busyTime 0.003112268907563
scalar World.node[235].nic.mac1609_4 ReceivedUnicastPackets 0
scalar World.node[235].nic.mac1609_4 ReceivedBroadcasts 2220
scalar World.node[235].nic.mac1609_4 SentPackets 390
scalar World.node[235].nic.mac1609_4 SentAcknowledgements 0
scalar World.node[235].nic.mac1609_4 SNIRLostPackets 60
scalar World.node[235].nic.mac1609_4 RXTXLostPackets 48
scalar World.node[235].nic.mac1609_4 TotalLostPackets 108
scalar World.node[235].nic.mac1609_4 DroppedPacketsInMac 0
scalar World.node[235].nic.mac1609_4 TooLittleTime 0
scalar World.node[235].nic.mac1609_4 TimesIntoBackoff 394
scalar World.node[235].nic.mac1609_4 SlotsBackoff 2875
scalar World.node[235].nic.mac1609_4 NumInternalContention 0
scalar World.node[235].nic.mac1609_4 totalBusyTime 0.431926142833
scalar World.node[229].appl.middleware.CaService #cam_sent 604
scalar World.node[229].appl.middleware.ExampleService #full_proofs 0
scalar World.node[229].appl.middleware.ExampleService #half_proofs 3
scalar World.node[229].appl.middleware.ExampleService #failed_proofs 0
scalar World.node[229].appl.middleware.ExampleService #loc_proof_send 29
scalar World.node[229].nic.phy80211p busyTime 0.0038371902439024
scalar World.node[229].nic.mac1609_4 ReceivedUnicastPackets 0
scalar World.node[229].nic.mac1609_4 ReceivedBroadcasts 4574
scalar World.node[229].nic.mac1609_4 SentPackets 633
scalar World.node[229].nic.mac1609_4 SentAcknowledgements 0
scalar World.node[229].nic.mac1609_4 SNIRLostPackets 283
scalar World.node[229].nic.mac1609_4 RXTXLostPackets 102
scalar World.node[229].nic.mac1609_4 TotalLostPackets 385
scalar World.node[229].nic.mac1609_4 DroppedPacketsInMac 0
scalar World.node[229].nic.mac1609_4 TooLittleTime 0
scalar World.node[229].nic.mac1609_4 TimesIntoBackoff 639
scalar World.node[229].nic.mac1609_4 SlotsBackoff 4902
scalar World.node[229].nic.mac1609_4 NumInternalContention 0
scalar World.node[229].nic.mac1609_4 totalBusyTime 0.88403338413
scalar World.node[238].appl.middleware.CaService #cam_sent 409
scalar World.node[238].appl.middleware.ExampleService #full_proofs 0
scalar World.node[238].appl.middleware.ExampleService #half_proofs 2
scalar World.node[238].appl.middleware.ExampleService #failed_proofs 0
scalar World.node[238].appl.middleware.ExampleService #loc_proof_send 14
scalar World.node[238].nic.phy80211p busyTime 0.0020156712328767
scalar World.node[238].nic.mac1609_4 ReceivedUnicastPackets 0
scalar World.node[238].nic.mac1609_4 ReceivedBroadcasts 1670
scalar World.node[238].nic.mac1609_4 SentPackets 423
scalar World.node[238].nic.mac1609_4 SentAcknowledgements 0
scalar World.node[238].nic.mac1609_4 SNIRLostPackets 139
scalar World.node[238].nic.mac1609_4 RXTXLostPackets 40
scalar World.node[238].nic.mac1609_4 TotalLostPackets 179
scalar World.node[238].nic.mac1609_4 DroppedPacketsInMac 0
scalar World.node[238].nic.mac1609_4 TooLittleTime 0
scalar World.node[238].nic.mac1609_4 TimesIntoBackoff 426
scalar World.node[238].nic.mac1609_4 SlotsBackoff 3187
scalar World.node[238].nic.mac1609_4 NumInternalContention 0
scalar World.node[238].nic.mac1609_4 totalBusyTime 0.360975
scalar World.node[233].appl.middleware.CaService #cam_sent 617
scalar World.node[233].appl.middleware.ExampleService #full_proofs 0
scalar World.node[233].appl.middleware.ExampleService #half_proofs 4
scalar World.node[233].appl.middleware.ExampleService #failed_proofs 0
scalar World.node[233].appl.middleware.ExampleService #loc_proof_send 23
scalar World.node[233].nic.phy80211p busyTime 0.0026714893617021
scalar World.node[233].nic.mac1609_4 ReceivedUnicastPackets 0
scalar World.node[233].nic.mac1609_4 ReceivedBroadcasts 3453
scalar World.node[233].nic.mac1609_4 SentPackets 640
scalar World.node[233].nic.mac1609_4 SentAcknowledgements 0
scalar World.node[233].nic.mac1609_4 SNIRLostPackets 414
scalar World.node[233].nic.mac1609_4 RXTXLostPackets 78
scalar World.node[233].nic.mac1609_4 TotalLostPackets 492
scalar World.node[233].nic.mac1609_4 DroppedPacketsInMac 0
scalar World.node[233].nic.mac1609_4 TooLittleTime 0
scalar World.node[233].nic.mac1609_4 TimesIntoBackoff 649
scalar World.node[233].nic.mac1609_4 SlotsBackoff 4687
scalar World.node[233].nic.mac1609_4 NumInternalContention 0
scalar World.node[233].nic.mac1609_4 totalBusyTime 0.728816264945
scalar World.node[236].appl.middleware.CaService #cam_sent 404
scalar World.node[236].appl.middleware.ExampleService #full_proofs 0
scalar World.node[236].appl.middleware.ExampleService #half_proofs 1
scalar World.node[236].appl.middleware.ExampleService #failed_proofs 2
scalar World.node[236].appl.middleware.ExampleService #loc_proof_send 16
scalar World.node[236].nic.phy80211p busyTime 0.0021712
scalar World.node[236].nic.mac1609_4 ReceivedUnicastPackets 0
scalar World.node[236].nic.mac1609_4 ReceivedBroadcasts 2258
scalar World.node[236].nic.mac1609_4 SentPackets 420
scalar World.node[236].nic.mac1609_4 SentAcknowledgements 0
scalar World.node[236].nic.mac1609_4 SNIRLostPackets 144
scalar World.node[236].nic.mac1609_4 RXTXLostPackets 45
scalar World.node[236].nic.mac1609_4 TotalLostPackets 189
scalar World.node[236].nic.mac1609_4 DroppedPacketsInMac 0
scalar World.node[236].nic.mac1609_4 TooLittleTime 0
scalar World.node[236].nic.mac1609_4 TimesIntoBackoff 423
scalar World.node[236].nic.mac1609_4 SlotsBackoff 3134
scalar World.node[236].nic.mac1609_4 NumInternalContention 0
scalar World.node[236].nic.mac1609_4 totalBusyTime 0.45702
scalar World.node[239].appl.middleware.CaService #cam_sent 412
scalar World.node[239].appl.middleware.ExampleService #full_proofs 0
scalar World.node[239].appl.middleware.ExampleService #half_proofs 2
scalar World.node[239].appl.middleware.ExampleService #failed_proofs 0
scalar World.node[239].appl.middleware.ExampleService #loc_proof_send 12
scalar World.node[239].nic.phy80211p busyTime 0.0015501860465116
scalar World.node[239].nic.mac1609_4 ReceivedUnicastPackets 0
scalar World.node[239].nic.mac1609_4 ReceivedBroadcasts 1505
scalar World.node[239].nic.mac1609_4 SentPackets 424
scalar World.node[239].nic.mac1609_4 SentAcknowledgements 0
scalar World.node[239].nic.mac1609_4 SNIRLostPackets 134
scalar World.node[239].nic.mac1609_4 RXTXLostPackets 19
scalar World.node[239].nic.mac1609_4 TotalLostPackets 153
scalar World.node[239].nic.mac1609_4 DroppedPacketsInMac 0
scalar World.node[239].nic.mac1609_4 TooLittleTime 0
scalar World.node[239].nic.mac1609_4 TimesIntoBackoff 426
scalar World.node[239].nic.mac1609_4 SlotsBackoff 2941
scalar World.node[239].nic.mac1609_4 NumInternalContention 0
scalar World.node[239].nic.mac1609_4 totalBusyTime 0.33456825109
scalar World.node[240].appl.middleware.CaService #cam_sent 436
scalar World.node[240].appl.middleware.ExampleService #full_proofs 0
scalar World.node[240].appl.middleware.ExampleService #half_proofs 2
scalar World.node[240].appl.middleware.ExampleService #failed_proofs 0
scalar World.node[240].appl.middleware.ExampleService #loc_proof_send 8
scalar World.node[240].nic.phy80211p busyTime 0.0013180838323353
scalar World.node[240].nic.mac1609_4 ReceivedUnicastPackets 0
scalar World.node[240].nic.mac1609_4 ReceivedBroadcasts 1260
scalar World.node[240].nic.mac1609_4 SentPackets 444
scalar World.node[240].nic.mac1609_4 SentAcknowledgements 0
scalar World.node[240].nic.mac1609_4 SNIRLostPackets 91
scalar World.node[240].nic.mac1609_4 RXTXLostPackets 7
scalar World.node[240].nic.mac1609_4 TotalLostPackets 98
scalar World.node[240].nic.mac1609_4 DroppedPacketsInMac 0
scalar World.node[240].nic.mac1609_4 TooLittleTime 0
scalar World.node[240].nic.mac1609_4 TimesIntoBackoff 444
scalar World.node[240].nic.mac1609_4 SlotsBackoff 3322
scalar World.node[240].nic.mac1609_4 NumInternalContention 0
scalar World.node[240].nic.mac1609_4 totalBusyTime 0.291708

