version 2
run No_Obstacles_Night-1-20191117-11:09:09-4847
attr configname No_Obstacles_Night
attr datetime 20191117-11:09:09
attr experiment No_Obstacles_Night
attr inifile omnetpp.ini
attr iterationvars $0=40
attr iterationvarsf 40-
attr measurement $0=40
attr network artery.veins.World
attr processid 4847
attr repetition 0
attr replication #0
attr resultdir results
attr runnumber 1
attr seedset 1
param *.traci.launcher.sumocfg "\"No_Obstacles_Night/run.sumo.cfg\""
param *.node[*].nic.mac1609_4.txPower 20mW
param *.node[*].nic.phy80211p.decider "xmldoc(\"config.xml\")"
param *.node[*].nic.phy80211p.analogueModels "xmldoc(\"config.xml\")"
param *.node[*].applType "\"artery.veins.ApplicationLayer\""
param *.node[*].appl.middleware.updateInterval 0.1s
param *.node[*].appl.middleware.datetime "\"2013-06-01 12:35:00\""
param *.node[*].appl.middleware.services "xmldoc(\"services.xml\")"
param *.node[*].appl.middleware.ExampleService.DecisionLogic 40
param *.node[*].appl.middleware.ExampleService.NeighboringWindow 60
param *.traci.core.version -1
param *.traci.launcher.typename "\"PosixLauncher\""
param *.playgroundSizeX 4000m
param *.playgroundSizeY 4000m
param *.playgroundSizeZ 50m
param *.connectionManager.maxInterfDist 1500m
param *.connectionManager.sendDirect true
param *.connectionManager.coreDebug false

scalar World.node[5].appl.middleware.CaService #cam_sent 158
scalar World.node[5].appl.middleware.ExampleService #full_proofs 0
scalar World.node[5].appl.middleware.ExampleService #half_proofs 0
scalar World.node[5].appl.middleware.ExampleService #failed_proofs 0
scalar World.node[5].appl.middleware.ExampleService #loc_proof_send 5
scalar World.node[5].nic.phy80211p busyTime 0.0028607659574468
scalar World.node[5].nic.mac1609_4 ReceivedUnicastPackets 0
scalar World.node[5].nic.mac1609_4 ReceivedBroadcasts 757
scalar World.node[5].nic.mac1609_4 SentPackets 163
scalar World.node[5].nic.mac1609_4 SentAcknowledgements 0
scalar World.node[5].nic.mac1609_4 SNIRLostPackets 72
scalar World.node[5].nic.mac1609_4 RXTXLostPackets 9
scalar World.node[5].nic.mac1609_4 TotalLostPackets 81
scalar World.node[5].nic.mac1609_4 DroppedPacketsInMac 0
scalar World.node[5].nic.mac1609_4 TooLittleTime 0
scalar World.node[5].nic.mac1609_4 TimesIntoBackoff 163
scalar World.node[5].nic.mac1609_4 SlotsBackoff 1203
scalar World.node[5].nic.mac1609_4 NumInternalContention 0
scalar World.node[5].nic.mac1609_4 totalBusyTime 0.160515
scalar World.node[3].appl.middleware.CaService #cam_sent 310
scalar World.node[3].appl.middleware.ExampleService #full_proofs 0
scalar World.node[3].appl.middleware.ExampleService #half_proofs 2
scalar World.node[3].appl.middleware.ExampleService #failed_proofs 0
scalar World.node[3].appl.middleware.ExampleService #loc_proof_send 13
scalar World.node[3].nic.phy80211p busyTime 0.002980352
scalar World.node[3].nic.mac1609_4 ReceivedUnicastPackets 0
scalar World.node[3].nic.mac1609_4 ReceivedBroadcasts 2246
scalar World.node[3].nic.mac1609_4 SentPackets 323
scalar World.node[3].nic.mac1609_4 SentAcknowledgements 0
scalar World.node[3].nic.mac1609_4 SNIRLostPackets 58
scalar World.node[3].nic.mac1609_4 RXTXLostPackets 13
scalar World.node[3].nic.mac1609_4 TotalLostPackets 71
scalar World.node[3].nic.mac1609_4 DroppedPacketsInMac 0
scalar World.node[3].nic.mac1609_4 TooLittleTime 0
scalar World.node[3].nic.mac1609_4 TimesIntoBackoff 324
scalar World.node[3].nic.mac1609_4 SlotsBackoff 2225
scalar World.node[3].nic.mac1609_4 NumInternalContention 0
scalar World.node[3].nic.mac1609_4 totalBusyTime 0.422851
scalar World.node[4].appl.middleware.CaService #cam_sent 355
scalar World.node[4].appl.middleware.ExampleService #full_proofs 0
scalar World.node[4].appl.middleware.ExampleService #half_proofs 1
scalar World.node[4].appl.middleware.ExampleService #failed_proofs 0
scalar World.node[4].appl.middleware.ExampleService #loc_proof_send 12
scalar World.node[4].nic.phy80211p busyTime 0.0030155862068965
scalar World.node[4].nic.mac1609_4 ReceivedUnicastPackets 0
scalar World.node[4].nic.mac1609_4 ReceivedBroadcasts 1948
scalar World.node[4].nic.mac1609_4 SentPackets 367
scalar World.node[4].nic.mac1609_4 SentAcknowledgements 0
scalar World.node[4].nic.mac1609_4 SNIRLostPackets 212
scalar World.node[4].nic.mac1609_4 RXTXLostPackets 20
scalar World.node[4].nic.mac1609_4 TotalLostPackets 232
scalar World.node[4].nic.mac1609_4 DroppedPacketsInMac 0
scalar World.node[4].nic.mac1609_4 TooLittleTime 0
scalar World.node[4].nic.mac1609_4 TimesIntoBackoff 370
scalar World.node[4].nic.mac1609_4 SlotsBackoff 2769
scalar World.node[4].nic.mac1609_4 NumInternalContention 0
scalar World.node[4].nic.mac1609_4 totalBusyTime 0.408079000461
scalar World.node[7].appl.middleware.CaService #cam_sent 268
scalar World.node[7].appl.middleware.ExampleService #full_proofs 0
scalar World.node[7].appl.middleware.ExampleService #half_proofs 2
scalar World.node[7].appl.middleware.ExampleService #failed_proofs 0
scalar World.node[7].appl.middleware.ExampleService #loc_proof_send 10
scalar World.node[7].nic.phy80211p busyTime 0.003388
scalar World.node[7].nic.mac1609_4 ReceivedUnicastPackets 0
scalar World.node[7].nic.mac1609_4 ReceivedBroadcasts 1677
scalar World.node[7].nic.mac1609_4 SentPackets 278
scalar World.node[7].nic.mac1609_4 SentAcknowledgements 0
scalar World.node[7].nic.mac1609_4 SNIRLostPackets 42
scalar World.node[7].nic.mac1609_4 RXTXLostPackets 14
scalar World.node[7].nic.mac1609_4 TotalLostPackets 56
scalar World.node[7].nic.mac1609_4 DroppedPacketsInMac 0
scalar World.node[7].nic.mac1609_4 TooLittleTime 0
scalar World.node[7].nic.mac1609_4 TimesIntoBackoff 280
scalar World.node[7].nic.mac1609_4 SlotsBackoff 2138
scalar World.node[7].nic.mac1609_4 NumInternalContention 0
scalar World.node[7].nic.mac1609_4 totalBusyTime 0.321438
scalar World.node[1].appl.middleware.CaService #cam_sent 547
scalar World.node[1].appl.middleware.ExampleService #full_proofs 0
scalar World.node[1].appl.middleware.ExampleService #half_proofs 3
scalar World.node[1].appl.middleware.ExampleService #failed_proofs 0
scalar World.node[1].appl.middleware.ExampleService #loc_proof_send 18
scalar World.node[1].nic.phy80211p busyTime 0.0025802608695652
scalar World.node[1].nic.mac1609_4 ReceivedUnicastPackets 0
scalar World.node[1].nic.mac1609_4 ReceivedBroadcasts 2813
scalar World.node[1].nic.mac1609_4 SentPackets 565
scalar World.node[1].nic.mac1609_4 SentAcknowledgements 0
scalar World.node[1].nic.mac1609_4 SNIRLostPackets 117
scalar World.node[1].nic.mac1609_4 RXTXLostPackets 37
scalar World.node[1].nic.mac1609_4 TotalLostPackets 154
scalar World.node[1].nic.mac1609_4 DroppedPacketsInMac 0
scalar World.node[1].nic.mac1609_4 TooLittleTime 0
scalar World.node[1].nic.mac1609_4 TimesIntoBackoff 569
scalar World.node[1].nic.mac1609_4 SlotsBackoff 4342
scalar World.node[1].nic.mac1609_4 NumInternalContention 0
scalar World.node[1].nic.mac1609_4 totalBusyTime 0.564853
scalar World.node[2].appl.middleware.CaService #cam_sent 581
scalar World.node[2].appl.middleware.ExampleService #full_proofs 0
scalar World.node[2].appl.middleware.ExampleService #half_proofs 3
scalar World.node[2].appl.middleware.ExampleService #failed_proofs 1
scalar World.node[2].appl.middleware.ExampleService #loc_proof_send 28
scalar World.node[2].nic.phy80211p busyTime 0.0029349357798165
scalar World.node[2].nic.mac1609_4 ReceivedUnicastPackets 0
scalar World.node[2].nic.mac1609_4 ReceivedBroadcasts 3849
scalar World.node[2].nic.mac1609_4 SentPackets 609
scalar World.node[2].nic.mac1609_4 SentAcknowledgements 0
scalar World.node[2].nic.mac1609_4 SNIRLostPackets 109
scalar World.node[2].nic.mac1609_4 RXTXLostPackets 30
scalar World.node[2].nic.mac1609_4 TotalLostPackets 139
scalar World.node[2].nic.mac1609_4 DroppedPacketsInMac 0
scalar World.node[2].nic.mac1609_4 TooLittleTime 0
scalar World.node[2].nic.mac1609_4 TimesIntoBackoff 662
scalar World.node[2].nic.mac1609_4 SlotsBackoff 4874
scalar World.node[2].nic.mac1609_4 NumInternalContention 0
scalar World.node[2].nic.mac1609_4 totalBusyTime 0.732729203058
scalar World.node[6].appl.middleware.CaService #cam_sent 419
scalar World.node[6].appl.middleware.ExampleService #full_proofs 0
scalar World.node[6].appl.middleware.ExampleService #half_proofs 3
scalar World.node[6].appl.middleware.ExampleService #failed_proofs 0
scalar World.node[6].appl.middleware.ExampleService #loc_proof_send 21
scalar World.node[6].nic.phy80211p busyTime 0.0033680919540229
scalar World.node[6].nic.mac1609_4 ReceivedUnicastPackets 0
scalar World.node[6].nic.mac1609_4 ReceivedBroadcasts 2789
scalar World.node[6].nic.mac1609_4 SentPackets 440
scalar World.node[6].nic.mac1609_4 SentAcknowledgements 0
scalar World.node[6].nic.mac1609_4 SNIRLostPackets 841
scalar World.node[6].nic.mac1609_4 RXTXLostPackets 34
scalar World.node[6].nic.mac1609_4 TotalLostPackets 875
scalar World.node[6].nic.mac1609_4 DroppedPacketsInMac 0
scalar World.node[6].nic.mac1609_4 TooLittleTime 0
scalar World.node[6].nic.mac1609_4 TimesIntoBackoff 440
scalar World.node[6].nic.mac1609_4 SlotsBackoff 3303
scalar World.node[6].nic.mac1609_4 NumInternalContention 0
scalar World.node[6].nic.mac1609_4 totalBusyTime 0.652008128276
scalar World.node[0].appl.middleware.CaService #cam_sent 632
scalar World.node[0].appl.middleware.ExampleService #full_proofs 0
scalar World.node[0].appl.middleware.ExampleService #half_proofs 3
scalar World.node[0].appl.middleware.ExampleService #failed_proofs 1
scalar World.node[0].appl.middleware.ExampleService #loc_proof_send 23
scalar World.node[0].nic.phy80211p busyTime 0.0027512350597609
scalar World.node[0].nic.mac1609_4 ReceivedUnicastPackets 0
scalar World.node[0].nic.mac1609_4 ReceivedBroadcasts 3430
scalar World.node[0].nic.mac1609_4 SentPackets 655
scalar World.node[0].nic.mac1609_4 SentAcknowledgements 0
scalar World.node[0].nic.mac1609_4 SNIRLostPackets 839
scalar World.node[0].nic.mac1609_4 RXTXLostPackets 46
scalar World.node[0].nic.mac1609_4 TotalLostPackets 885
scalar World.node[0].nic.mac1609_4 DroppedPacketsInMac 0
scalar World.node[0].nic.mac1609_4 TooLittleTime 0
scalar World.node[0].nic.mac1609_4 TimesIntoBackoff 658
scalar World.node[0].nic.mac1609_4 SlotsBackoff 4944
scalar World.node[0].nic.mac1609_4 NumInternalContention 0
scalar World.node[0].nic.mac1609_4 totalBusyTime 0.793087
scalar World.node[13].appl.middleware.CaService #cam_sent 164
scalar World.node[13].appl.middleware.ExampleService #full_proofs 0
scalar World.node[13].appl.middleware.ExampleService #half_proofs 1
scalar World.node[13].appl.middleware.ExampleService #failed_proofs 0
scalar World.node[13].appl.middleware.ExampleService #loc_proof_send 3
scalar World.node[13].nic.phy80211p busyTime 0.0036052244897959
scalar World.node[13].nic.mac1609_4 ReceivedUnicastPackets 0
scalar World.node[13].nic.mac1609_4 ReceivedBroadcasts 829
scalar World.node[13].nic.mac1609_4 SentPackets 167
scalar World.node[13].nic.mac1609_4 SentAcknowledgements 0
scalar World.node[13].nic.mac1609_4 SNIRLostPackets 269
scalar World.node[13].nic.mac1609_4 RXTXLostPackets 6
scalar World.node[13].nic.mac1609_4 TotalLostPackets 275
scalar World.node[13].nic.mac1609_4 DroppedPacketsInMac 0
scalar World.node[13].nic.mac1609_4 TooLittleTime 0
scalar World.node[13].nic.mac1609_4 TimesIntoBackoff 167
scalar World.node[13].nic.mac1609_4 SlotsBackoff 1302
scalar World.node[13].nic.mac1609_4 NumInternalContention 0
scalar World.node[13].nic.mac1609_4 totalBusyTime 0.201695
scalar World.node[14].appl.middleware.CaService #cam_sent 168
scalar World.node[14].appl.middleware.ExampleService #full_proofs 0
scalar World.node[14].appl.middleware.ExampleService #half_proofs 0
scalar World.node[14].appl.middleware.ExampleService #failed_proofs 1
scalar World.node[14].appl.middleware.ExampleService #loc_proof_send 5
scalar World.node[14].nic.phy80211p busyTime 0.00363056
scalar World.node[14].nic.mac1609_4 ReceivedUnicastPackets 0
scalar World.node[14].nic.mac1609_4 ReceivedBroadcasts 848
scalar World.node[14].nic.mac1609_4 SentPackets 173
scalar World.node[14].nic.mac1609_4 SentAcknowledgements 0
scalar World.node[14].nic.mac1609_4 SNIRLostPackets 278
scalar World.node[14].nic.mac1609_4 RXTXLostPackets 12
scalar World.node[14].nic.mac1609_4 TotalLostPackets 290
scalar World.node[14].nic.mac1609_4 DroppedPacketsInMac 0
scalar World.node[14].nic.mac1609_4 TooLittleTime 0
scalar World.node[14].nic.mac1609_4 TimesIntoBackoff 173
scalar World.node[14].nic.mac1609_4 SlotsBackoff 1306
scalar World.node[14].nic.mac1609_4 NumInternalContention 0
scalar World.node[14].nic.mac1609_4 totalBusyTime 0.207493
scalar World.node[8].appl.middleware.CaService #cam_sent 482
scalar World.node[8].appl.middleware.ExampleService #full_proofs 0
scalar World.node[8].appl.middleware.ExampleService #half_proofs 2
scalar World.node[8].appl.middleware.ExampleService #failed_proofs 1
scalar World.node[8].appl.middleware.ExampleService #loc_proof_send 22
scalar World.node[8].nic.phy80211p busyTime 0.0034425921787709
scalar World.node[8].nic.mac1609_4 ReceivedUnicastPackets 0
scalar World.node[8].nic.mac1609_4 ReceivedBroadcasts 3189
scalar World.node[8].nic.mac1609_4 SentPackets 504
scalar World.node[8].nic.mac1609_4 SentAcknowledgements 0
scalar World.node[8].nic.mac1609_4 SNIRLostPackets 620
scalar World.node[8].nic.mac1609_4 RXTXLostPackets 45
scalar World.node[8].nic.mac1609_4 TotalLostPackets 665
scalar World.node[8].nic.mac1609_4 DroppedPacketsInMac 0
scalar World.node[8].nic.mac1609_4 TooLittleTime 0
scalar World.node[8].nic.mac1609_4 TimesIntoBackoff 505
scalar World.node[8].nic.mac1609_4 SlotsBackoff 3747
scalar World.node[8].nic.mac1609_4 NumInternalContention 0
scalar World.node[8].nic.mac1609_4 totalBusyTime 0.691744190523
scalar World.node[17].appl.middleware.CaService #cam_sent 118
scalar World.node[17].appl.middleware.ExampleService #full_proofs 0
scalar World.node[17].appl.middleware.ExampleService #half_proofs 1
scalar World.node[17].appl.middleware.ExampleService #failed_proofs 0
scalar World.node[17].appl.middleware.ExampleService #loc_proof_send 7
scalar World.node[17].nic.phy80211p busyTime 0.0036900952380952
scalar World.node[17].nic.mac1609_4 ReceivedUnicastPackets 0
scalar World.node[17].nic.mac1609_4 ReceivedBroadcasts 888
scalar World.node[17].nic.mac1609_4 SentPackets 125
scalar World.node[17].nic.mac1609_4 SentAcknowledgements 0
scalar World.node[17].nic.mac1609_4 SNIRLostPackets 68
scalar World.node[17].nic.mac1609_4 RXTXLostPackets 28
scalar World.node[17].nic.mac1609_4 TotalLostPackets 96
scalar World.node[17].nic.mac1609_4 DroppedPacketsInMac 0
scalar World.node[17].nic.mac1609_4 TooLittleTime 0
scalar World.node[17].nic.mac1609_4 TimesIntoBackoff 125
scalar World.node[17].nic.mac1609_4 SlotsBackoff 915
scalar World.node[17].nic.mac1609_4 NumInternalContention 0
scalar World.node[17].nic.mac1609_4 totalBusyTime 0.174421
scalar World.node[10].appl.middleware.CaService #cam_sent 483
scalar World.node[10].appl.middleware.ExampleService #full_proofs 0
scalar World.node[10].appl.middleware.ExampleService #half_proofs 2
scalar World.node[10].appl.middleware.ExampleService #failed_proofs 0
scalar World.node[10].appl.middleware.ExampleService #loc_proof_send 22
scalar World.node[10].nic.phy80211p busyTime 0.0032777283950617
scalar World.node[10].nic.mac1609_4 ReceivedUnicastPackets 0
scalar World.node[10].nic.mac1609_4 ReceivedBroadcasts 2933
scalar World.node[10].nic.mac1609_4 SentPackets 505
scalar World.node[10].nic.mac1609_4 SentAcknowledgements 0
scalar World.node[10].nic.mac1609_4 SNIRLostPackets 338
scalar World.node[10].nic.mac1609_4 RXTXLostPackets 73
scalar World.node[10].nic.mac1609_4 TotalLostPackets 411
scalar World.node[10].nic.mac1609_4 DroppedPacketsInMac 0
scalar World.node[10].nic.mac1609_4 TooLittleTime 0
scalar World.node[10].nic.mac1609_4 TimesIntoBackoff 507
scalar World.node[10].nic.mac1609_4 SlotsBackoff 3758
scalar World.node[10].nic.mac1609_4 NumInternalContention 0
scalar World.node[10].nic.mac1609_4 totalBusyTime 0.609265031661
scalar World.node[12].appl.middleware.CaService #cam_sent 453
scalar World.node[12].appl.middleware.ExampleService #full_proofs 0
scalar World.node[12].appl.middleware.ExampleService #half_proofs 3
scalar World.node[12].appl.middleware.ExampleService #failed_proofs 0
scalar World.node[12].appl.middleware.ExampleService #loc_proof_send 19
scalar World.node[12].nic.phy80211p busyTime 0.0034581104294478
scalar World.node[12].nic.mac1609_4 ReceivedUnicastPackets 0
scalar World.node[12].nic.mac1609_4 ReceivedBroadcasts 2813
scalar World.node[12].nic.mac1609_4 SentPackets 472
scalar World.node[12].nic.mac1609_4 SentAcknowledgements 0
scalar World.node[12].nic.mac1609_4 SNIRLostPackets 666
scalar World.node[12].nic.mac1609_4 RXTXLostPackets 52
scalar World.node[12].nic.mac1609_4 TotalLostPackets 718
scalar World.node[12].nic.mac1609_4 DroppedPacketsInMac 0
scalar World.node[12].nic.mac1609_4 TooLittleTime 0
scalar World.node[12].nic.mac1609_4 TimesIntoBackoff 472
scalar World.node[12].nic.mac1609_4 SlotsBackoff 3735
scalar World.node[12].nic.mac1609_4 NumInternalContention 0
scalar World.node[12].nic.mac1609_4 totalBusyTime 0.635408
scalar World.node[15].appl.middleware.CaService #cam_sent 394
scalar World.node[15].appl.middleware.ExampleService #full_proofs 0
scalar World.node[15].appl.middleware.ExampleService #half_proofs 0
scalar World.node[15].appl.middleware.ExampleService #failed_proofs 1
scalar World.node[15].appl.middleware.ExampleService #loc_proof_send 13
scalar World.node[15].nic.phy80211p busyTime 0.0033702372881355
scalar World.node[15].nic.mac1609_4 ReceivedUnicastPackets 0
scalar World.node[15].nic.mac1609_4 ReceivedBroadcasts 2140
scalar World.node[15].nic.mac1609_4 SentPackets 407
scalar World.node[15].nic.mac1609_4 SentAcknowledgements 0
scalar World.node[15].nic.mac1609_4 SNIRLostPackets 311
scalar World.node[15].nic.mac1609_4 RXTXLostPackets 37
scalar World.node[15].nic.mac1609_4 TotalLostPackets 348
scalar World.node[15].nic.mac1609_4 DroppedPacketsInMac 0
scalar World.node[15].nic.mac1609_4 TooLittleTime 0
scalar World.node[15].nic.mac1609_4 TimesIntoBackoff 409
scalar World.node[15].nic.mac1609_4 SlotsBackoff 3152
scalar World.node[15].nic.mac1609_4 NumInternalContention 0
scalar World.node[15].nic.mac1609_4 totalBusyTime 0.459799
scalar World.node[9].appl.middleware.CaService #cam_sent 711
scalar World.node[9].appl.middleware.ExampleService #full_proofs 0
scalar World.node[9].appl.middleware.ExampleService #half_proofs 4
scalar World.node[9].appl.middleware.ExampleService #failed_proofs 0
scalar World.node[9].appl.middleware.ExampleService #loc_proof_send 35
scalar World.node[9].nic.phy80211p busyTime 0.0035430354609929
scalar World.node[9].nic.mac1609_4 ReceivedUnicastPackets 0
scalar World.node[9].nic.mac1609_4 ReceivedBroadcasts 5419
scalar World.node[9].nic.mac1609_4 SentPackets 746
scalar World.node[9].nic.mac1609_4 SentAcknowledgements 0
scalar World.node[9].nic.mac1609_4 SNIRLostPackets 751
scalar World.node[9].nic.mac1609_4 RXTXLostPackets 93
scalar World.node[9].nic.mac1609_4 TotalLostPackets 844
scalar World.node[9].nic.mac1609_4 DroppedPacketsInMac 0
scalar World.node[9].nic.mac1609_4 TooLittleTime 0
scalar World.node[9].nic.mac1609_4 TimesIntoBackoff 758
scalar World.node[9].nic.mac1609_4 SlotsBackoff 5609
scalar World.node[9].nic.mac1609_4 NumInternalContention 0
scalar World.node[9].nic.mac1609_4 totalBusyTime 1.11149006738
scalar World.node[23].appl.middleware.CaService #cam_sent 102
scalar World.node[23].appl.middleware.ExampleService #full_proofs 0
scalar World.node[23].appl.middleware.ExampleService #half_proofs 1
scalar World.node[23].appl.middleware.ExampleService #failed_proofs 0
scalar World.node[23].appl.middleware.ExampleService #loc_proof_send 4
scalar World.node[23].nic.phy80211p busyTime 0.0043704
scalar World.node[23].nic.mac1609_4 ReceivedUnicastPackets 0
scalar World.node[23].nic.mac1609_4 ReceivedBroadcasts 733
scalar World.node[23].nic.mac1609_4 SentPackets 106
scalar World.node[23].nic.mac1609_4 SentAcknowledgements 0
scalar World.node[23].nic.mac1609_4 SNIRLostPackets 77
scalar World.node[23].nic.mac1609_4 RXTXLostPackets 15
scalar World.node[23].nic.mac1609_4 TotalLostPackets 92
scalar World.node[23].nic.mac1609_4 DroppedPacketsInMac 0
scalar World.node[23].nic.mac1609_4 TooLittleTime 0
scalar World.node[23].nic.mac1609_4 TimesIntoBackoff 108
scalar World.node[23].nic.mac1609_4 SlotsBackoff 816
scalar World.node[23].nic.mac1609_4 NumInternalContention 0
scalar World.node[23].nic.mac1609_4 totalBusyTime 0.147962
scalar World.node[20].appl.middleware.CaService #cam_sent 318
scalar World.node[20].appl.middleware.ExampleService #full_proofs 0
scalar World.node[20].appl.middleware.ExampleService #half_proofs 1
scalar World.node[20].appl.middleware.ExampleService #failed_proofs 0
scalar World.node[20].appl.middleware.ExampleService #loc_proof_send 13
scalar World.node[20].nic.phy80211p busyTime 0.0036769684210526
scalar World.node[20].nic.mac1609_4 ReceivedUnicastPackets 0
scalar World.node[20].nic.mac1609_4 ReceivedBroadcasts 1956
scalar World.node[20].nic.mac1609_4 SentPackets 331
scalar World.node[20].nic.mac1609_4 SentAcknowledgements 0
scalar World.node[20].nic.mac1609_4 SNIRLostPackets 204
scalar World.node[20].nic.mac1609_4 RXTXLostPackets 25
scalar World.node[20].nic.mac1609_4 TotalLostPackets 229
scalar World.node[20].nic.mac1609_4 DroppedPacketsInMac 0
scalar World.node[20].nic.mac1609_4 TooLittleTime 0
scalar World.node[20].nic.mac1609_4 TimesIntoBackoff 333
scalar World.node[20].nic.mac1609_4 SlotsBackoff 2380
scalar World.node[20].nic.mac1609_4 NumInternalContention 0
scalar World.node[20].nic.mac1609_4 totalBusyTime 0.400123
scalar World.node[19].appl.middleware.CaService #cam_sent 382
scalar World.node[19].appl.middleware.ExampleService #full_proofs 0
scalar World.node[19].appl.middleware.ExampleService #half_proofs 2
scalar World.node[19].appl.middleware.ExampleService #failed_proofs 0
scalar World.node[19].appl.middleware.ExampleService #loc_proof_send 17
scalar World.node[19].nic.phy80211p busyTime 0.0036571056910569
scalar World.node[19].nic.mac1609_4 ReceivedUnicastPackets 0
scalar World.node[19].nic.mac1609_4 ReceivedBroadcasts 2579
scalar World.node[19].nic.mac1609_4 SentPackets 399
scalar World.node[19].nic.mac1609_4 SentAcknowledgements 0
scalar World.node[19].nic.mac1609_4 SNIRLostPackets 208
scalar World.node[19].nic.mac1609_4 RXTXLostPackets 25
scalar World.node[19].nic.mac1609_4 TotalLostPackets 233
scalar World.node[19].nic.mac1609_4 DroppedPacketsInMac 0
scalar World.node[19].nic.mac1609_4 TooLittleTime 0
scalar World.node[19].nic.mac1609_4 TimesIntoBackoff 402
scalar World.node[19].nic.mac1609_4 SlotsBackoff 2945
scalar World.node[19].nic.mac1609_4 NumInternalContention 0
scalar World.node[19].nic.mac1609_4 totalBusyTime 0.509143170545
scalar World.node[18].appl.middleware.CaService #cam_sent 514
scalar World.node[18].appl.middleware.ExampleService #full_proofs 0
scalar World.node[18].appl.middleware.ExampleService #half_proofs 2
scalar World.node[18].appl.middleware.ExampleService #failed_proofs 1
scalar World.node[18].appl.middleware.ExampleService #loc_proof_send 23
scalar World.node[18].nic.phy80211p busyTime 0.0034765443786982
scalar World.node[18].nic.mac1609_4 ReceivedUnicastPackets 0
scalar World.node[18].nic.mac1609_4 ReceivedBroadcasts 3218
scalar World.node[18].nic.mac1609_4 SentPackets 537
scalar World.node[18].nic.mac1609_4 SentAcknowledgements 0
scalar World.node[18].nic.mac1609_4 SNIRLostPackets 411
scalar World.node[18].nic.mac1609_4 RXTXLostPackets 58
scalar World.node[18].nic.mac1609_4 TotalLostPackets 469
scalar World.node[18].nic.mac1609_4 DroppedPacketsInMac 0
scalar World.node[18].nic.mac1609_4 TooLittleTime 0
scalar World.node[18].nic.mac1609_4 TimesIntoBackoff 540
scalar World.node[18].nic.mac1609_4 SlotsBackoff 4026
scalar World.node[18].nic.mac1609_4 NumInternalContention 0
scalar World.node[18].nic.mac1609_4 totalBusyTime 0.669937176445
scalar World.node[16].appl.middleware.CaService #cam_sent 502
scalar World.node[16].appl.middleware.ExampleService #full_proofs 0
scalar World.node[16].appl.middleware.ExampleService #half_proofs 3
scalar World.node[16].appl.middleware.ExampleService #failed_proofs 0
scalar World.node[16].appl.middleware.ExampleService #loc_proof_send 25
scalar World.node[16].nic.phy80211p busyTime 0.0035622801932367
scalar World.node[16].nic.mac1609_4 ReceivedUnicastPackets 0
scalar World.node[16].nic.mac1609_4 ReceivedBroadcasts 4254
scalar World.node[16].nic.mac1609_4 SentPackets 527
scalar World.node[16].nic.mac1609_4 SentAcknowledgements 0
scalar World.node[16].nic.mac1609_4 SNIRLostPackets 298
scalar World.node[16].nic.mac1609_4 RXTXLostPackets 71
scalar World.node[16].nic.mac1609_4 TotalLostPackets 369
scalar World.node[16].nic.mac1609_4 DroppedPacketsInMac 0
scalar World.node[16].nic.mac1609_4 TooLittleTime 0
scalar World.node[16].nic.mac1609_4 TimesIntoBackoff 530
scalar World.node[16].nic.mac1609_4 SlotsBackoff 4046
scalar World.node[16].nic.mac1609_4 NumInternalContention 0
scalar World.node[16].nic.mac1609_4 totalBusyTime 0.816239058844
scalar World.node[11].appl.middleware.CaService #cam_sent 905
scalar World.node[11].appl.middleware.ExampleService #full_proofs 0
scalar World.node[11].appl.middleware.ExampleService #half_proofs 6
scalar World.node[11].appl.middleware.ExampleService #failed_proofs 0
scalar World.node[11].appl.middleware.ExampleService #loc_proof_send 40
scalar World.node[11].nic.phy80211p busyTime 0.0036053644314867
scalar World.node[11].nic.mac1609_4 ReceivedUnicastPackets 0
scalar World.node[11].nic.mac1609_4 ReceivedBroadcasts 5947
scalar World.node[11].nic.mac1609_4 SentPackets 945
scalar World.node[11].nic.mac1609_4 SentAcknowledgements 0
scalar World.node[11].nic.mac1609_4 SNIRLostPackets 1695
scalar World.node[11].nic.mac1609_4 RXTXLostPackets 97
scalar World.node[11].nic.mac1609_4 TotalLostPackets 1792
scalar World.node[11].nic.mac1609_4 DroppedPacketsInMac 0
scalar World.node[11].nic.mac1609_4 TooLittleTime 0
scalar World.node[11].nic.mac1609_4 TimesIntoBackoff 952
scalar World.node[11].nic.mac1609_4 SlotsBackoff 7323
scalar World.node[11].nic.mac1609_4 NumInternalContention 0
scalar World.node[11].nic.mac1609_4 totalBusyTime 1.375353029281
scalar World.node[26].appl.middleware.CaService #cam_sent 268
scalar World.node[26].appl.middleware.ExampleService #full_proofs 0
scalar World.node[26].appl.middleware.ExampleService #half_proofs 1
scalar World.node[26].appl.middleware.ExampleService #failed_proofs 0
scalar World.node[26].appl.middleware.ExampleService #loc_proof_send 12
scalar World.node[26].nic.phy80211p busyTime 0.0037846436781609
scalar World.node[26].nic.mac1609_4 ReceivedUnicastPackets 0
scalar World.node[26].nic.mac1609_4 ReceivedBroadcasts 1878
scalar World.node[26].nic.mac1609_4 SentPackets 280
scalar World.node[26].nic.mac1609_4 SentAcknowledgements 0
scalar World.node[26].nic.mac1609_4 SNIRLostPackets 154
scalar World.node[26].nic.mac1609_4 RXTXLostPackets 26
scalar World.node[26].nic.mac1609_4 TotalLostPackets 180
scalar World.node[26].nic.mac1609_4 DroppedPacketsInMac 0
scalar World.node[26].nic.mac1609_4 TooLittleTime 0
scalar World.node[26].nic.mac1609_4 TimesIntoBackoff 281
scalar World.node[26].nic.mac1609_4 SlotsBackoff 1932
scalar World.node[26].nic.mac1609_4 NumInternalContention 0
scalar World.node[26].nic.mac1609_4 totalBusyTime 0.368960449958
scalar World.node[22].appl.middleware.CaService #cam_sent 522
scalar World.node[22].appl.middleware.ExampleService #full_proofs 0
scalar World.node[22].appl.middleware.ExampleService #half_proofs 3
scalar World.node[22].appl.middleware.ExampleService #failed_proofs 0
scalar World.node[22].appl.middleware.ExampleService #loc_proof_send 24
scalar World.node[22].nic.phy80211p busyTime 0.0037101675977653
scalar World.node[22].nic.mac1609_4 ReceivedUnicastPackets 0
scalar World.node[22].nic.mac1609_4 ReceivedBroadcasts 3679
scalar World.node[22].nic.mac1609_4 SentPackets 546
scalar World.node[22].nic.mac1609_4 SentAcknowledgements 0
scalar World.node[22].nic.mac1609_4 SNIRLostPackets 426
scalar World.node[22].nic.mac1609_4 RXTXLostPackets 55
scalar World.node[22].nic.mac1609_4 TotalLostPackets 481
scalar World.node[22].nic.mac1609_4 DroppedPacketsInMac 0
scalar World.node[22].nic.mac1609_4 TooLittleTime 0
scalar World.node[22].nic.mac1609_4 TimesIntoBackoff 548
scalar World.node[22].nic.mac1609_4 SlotsBackoff 3914
scalar World.node[22].nic.mac1609_4 NumInternalContention 0
scalar World.node[22].nic.mac1609_4 totalBusyTime 0.743346316563
scalar World.node[24].appl.middleware.CaService #cam_sent 551
scalar World.node[24].appl.middleware.ExampleService #full_proofs 0
scalar World.node[24].appl.middleware.ExampleService #half_proofs 3
scalar World.node[24].appl.middleware.ExampleService #failed_proofs 0
scalar World.node[24].appl.middleware.ExampleService #loc_proof_send 23
scalar World.node[24].nic.phy80211p busyTime 0.0038849195402298
scalar World.node[24].nic.mac1609_4 ReceivedUnicastPackets 0
scalar World.node[24].nic.mac1609_4 ReceivedBroadcasts 3441
scalar World.node[24].nic.mac1609_4 SentPackets 574
scalar World.node[24].nic.mac1609_4 SentAcknowledgements 0
scalar World.node[24].nic.mac1609_4 SNIRLostPackets 745
scalar World.node[24].nic.mac1609_4 RXTXLostPackets 62
scalar World.node[24].nic.mac1609_4 TotalLostPackets 807
scalar World.node[24].nic.mac1609_4 DroppedPacketsInMac 0
scalar World.node[24].nic.mac1609_4 TooLittleTime 0
scalar World.node[24].nic.mac1609_4 TimesIntoBackoff 577
scalar World.node[24].nic.mac1609_4 SlotsBackoff 4248
scalar World.node[24].nic.mac1609_4 NumInternalContention 0
scalar World.node[24].nic.mac1609_4 totalBusyTime 0.756126107936
scalar World.node[21].appl.middleware.CaService #cam_sent 637
scalar World.node[21].appl.middleware.ExampleService #full_proofs 0
scalar World.node[21].appl.middleware.ExampleService #half_proofs 4
scalar World.node[21].appl.middleware.ExampleService #failed_proofs 0
scalar World.node[21].appl.middleware.ExampleService #loc_proof_send 28
scalar World.node[21].nic.phy80211p busyTime 0.0038520836820083
scalar World.node[21].nic.mac1609_4 ReceivedUnicastPackets 0
scalar World.node[21].nic.mac1609_4 ReceivedBroadcasts 4410
scalar World.node[21].nic.mac1609_4 SentPackets 665
scalar World.node[21].nic.mac1609_4 SentAcknowledgements 0
scalar World.node[21].nic.mac1609_4 SNIRLostPackets 1289
scalar World.node[21].nic.mac1609_4 RXTXLostPackets 72
scalar World.node[21].nic.mac1609_4 TotalLostPackets 1361
scalar World.node[21].nic.mac1609_4 DroppedPacketsInMac 0
scalar World.node[21].nic.mac1609_4 TooLittleTime 0
scalar World.node[21].nic.mac1609_4 TimesIntoBackoff 669
scalar World.node[21].nic.mac1609_4 SlotsBackoff 5087
scalar World.node[21].nic.mac1609_4 NumInternalContention 0
scalar World.node[21].nic.mac1609_4 totalBusyTime 1.013161192435
scalar World.node[25].appl.middleware.CaService #cam_sent 422
scalar World.node[25].appl.middleware.ExampleService #full_proofs 0
scalar World.node[25].appl.middleware.ExampleService #half_proofs 3
scalar World.node[25].appl.middleware.ExampleService #failed_proofs 0
scalar World.node[25].appl.middleware.ExampleService #loc_proof_send 23
scalar World.node[25].nic.phy80211p busyTime 0.0040143999999999
scalar World.node[25].nic.mac1609_4 ReceivedUnicastPackets 0
scalar World.node[25].nic.mac1609_4 ReceivedBroadcasts 3628
scalar World.node[25].nic.mac1609_4 SentPackets 445
scalar World.node[25].nic.mac1609_4 SentAcknowledgements 0
scalar World.node[25].nic.mac1609_4 SNIRLostPackets 725
scalar World.node[25].nic.mac1609_4 RXTXLostPackets 46
scalar World.node[25].nic.mac1609_4 TotalLostPackets 771
scalar World.node[25].nic.mac1609_4 DroppedPacketsInMac 0
scalar World.node[25].nic.mac1609_4 TooLittleTime 0
scalar World.node[25].nic.mac1609_4 TimesIntoBackoff 445
scalar World.node[25].nic.mac1609_4 SlotsBackoff 3253
scalar World.node[25].nic.mac1609_4 NumInternalContention 0
scalar World.node[25].nic.mac1609_4 totalBusyTime 0.75770908486
scalar World.node[29].appl.middleware.CaService #cam_sent 486
scalar World.node[29].appl.middleware.ExampleService #full_proofs 1
scalar World.node[29].appl.middleware.ExampleService #half_proofs 2
scalar World.node[29].appl.middleware.ExampleService #failed_proofs 0
scalar World.node[29].appl.middleware.ExampleService #loc_proof_send 35
scalar World.node[29].nic.phy80211p busyTime 0.004923323076923
scalar World.node[29].nic.mac1609_4 ReceivedUnicastPackets 0
scalar World.node[29].nic.mac1609_4 ReceivedBroadcasts 5192
scalar World.node[29].nic.mac1609_4 SentPackets 521
scalar World.node[29].nic.mac1609_4 SentAcknowledgements 0
scalar World.node[29].nic.mac1609_4 SNIRLostPackets 772
scalar World.node[29].nic.mac1609_4 RXTXLostPackets 145
scalar World.node[29].nic.mac1609_4 TotalLostPackets 917
scalar World.node[29].nic.mac1609_4 DroppedPacketsInMac 0
scalar World.node[29].nic.mac1609_4 TooLittleTime 0
scalar World.node[29].nic.mac1609_4 TimesIntoBackoff 526
scalar World.node[29].nic.mac1609_4 SlotsBackoff 4043
scalar World.node[29].nic.mac1609_4 NumInternalContention 0
scalar World.node[29].nic.mac1609_4 totalBusyTime 1.018769037931
scalar World.node[27].appl.middleware.CaService #cam_sent 594
scalar World.node[27].appl.middleware.ExampleService #full_proofs 1
scalar World.node[27].appl.middleware.ExampleService #half_proofs 3
scalar World.node[27].appl.middleware.ExampleService #failed_proofs 0
scalar World.node[27].appl.middleware.ExampleService #loc_proof_send 43
scalar World.node[27].nic.phy80211p busyTime 0.004972652719665
scalar World.node[27].nic.mac1609_4 ReceivedUnicastPackets 0
scalar World.node[27].nic.mac1609_4 ReceivedBroadcasts 6365
scalar World.node[27].nic.mac1609_4 SentPackets 637
scalar World.node[27].nic.mac1609_4 SentAcknowledgements 0
scalar World.node[27].nic.mac1609_4 SNIRLostPackets 1018
scalar World.node[27].nic.mac1609_4 RXTXLostPackets 160
scalar World.node[27].nic.mac1609_4 TotalLostPackets 1178
scalar World.node[27].nic.mac1609_4 DroppedPacketsInMac 0
scalar World.node[27].nic.mac1609_4 TooLittleTime 0
scalar World.node[27].nic.mac1609_4 TimesIntoBackoff 642
scalar World.node[27].nic.mac1609_4 SlotsBackoff 4831
scalar World.node[27].nic.mac1609_4 NumInternalContention 0
scalar World.node[27].nic.mac1609_4 totalBusyTime 1.257445759829
scalar World.node[28].appl.middleware.CaService #cam_sent 609
scalar World.node[28].appl.middleware.ExampleService #full_proofs 1
scalar World.node[28].appl.middleware.ExampleService #half_proofs 2
scalar World.node[28].appl.middleware.ExampleService #failed_proofs 1
scalar World.node[28].appl.middleware.ExampleService #loc_proof_send 36
scalar World.node[28].nic.phy80211p busyTime 0.0050171478260867
scalar World.node[28].nic.mac1609_4 ReceivedUnicastPackets 0
scalar World.node[28].nic.mac1609_4 ReceivedBroadcasts 5916
scalar World.node[28].nic.mac1609_4 SentPackets 645
scalar World.node[28].nic.mac1609_4 SentAcknowledgements 0
scalar World.node[28].nic.mac1609_4 SNIRLostPackets 1269
scalar World.node[28].nic.mac1609_4 RXTXLostPackets 229
scalar World.node[28].nic.mac1609_4 TotalLostPackets 1498
scalar World.node[28].nic.mac1609_4 DroppedPacketsInMac 0
scalar World.node[28].nic.mac1609_4 TooLittleTime 0
scalar World.node[28].nic.mac1609_4 TimesIntoBackoff 650
scalar World.node[28].nic.mac1609_4 SlotsBackoff 4754
scalar World.node[28].nic.mac1609_4 NumInternalContention 0
scalar World.node[28].nic.mac1609_4 totalBusyTime 1.237550112514
scalar World.node[30].appl.middleware.CaService #cam_sent 595
scalar World.node[30].appl.middleware.ExampleService #full_proofs 0
scalar World.node[30].appl.middleware.ExampleService #half_proofs 4
scalar World.node[30].appl.middleware.ExampleService #failed_proofs 0
scalar World.node[30].appl.middleware.ExampleService #loc_proof_send 43
scalar World.node[30].nic.phy80211p busyTime 0.0053245470085466
scalar World.node[30].nic.mac1609_4 ReceivedUnicastPackets 0
scalar World.node[30].nic.mac1609_4 ReceivedBroadcasts 7071
scalar World.node[30].nic.mac1609_4 SentPackets 638
scalar World.node[30].nic.mac1609_4 SentAcknowledgements 0
scalar World.node[30].nic.mac1609_4 SNIRLostPackets 695
scalar World.node[30].nic.mac1609_4 RXTXLostPackets 244
scalar World.node[30].nic.mac1609_4 TotalLostPackets 939
scalar World.node[30].nic.mac1609_4 DroppedPacketsInMac 0
scalar World.node[30].nic.mac1609_4 TooLittleTime 0
scalar World.node[30].nic.mac1609_4 TimesIntoBackoff 731
scalar World.node[30].nic.mac1609_4 SlotsBackoff 5338
scalar World.node[30].nic.mac1609_4 NumInternalContention 0
scalar World.node[30].nic.mac1609_4 totalBusyTime 1.323334331307
scalar World.node[33].appl.middleware.CaService #cam_sent 543
scalar World.node[33].appl.middleware.ExampleService #full_proofs 0
scalar World.node[33].appl.middleware.ExampleService #half_proofs 2
scalar World.node[33].appl.middleware.ExampleService #failed_proofs 1
scalar World.node[33].appl.middleware.ExampleService #loc_proof_send 38
scalar World.node[33].nic.phy80211p busyTime 0.0055004848484846
scalar World.node[33].nic.mac1609_4 ReceivedUnicastPackets 0
scalar World.node[33].nic.mac1609_4 ReceivedBroadcasts 5965
scalar World.node[33].nic.mac1609_4 SentPackets 581
scalar World.node[33].nic.mac1609_4 SentAcknowledgements 0
scalar World.node[33].nic.mac1609_4 SNIRLostPackets 814
scalar World.node[33].nic.mac1609_4 RXTXLostPackets 179
scalar World.node[33].nic.mac1609_4 TotalLostPackets 993
scalar World.node[33].nic.mac1609_4 DroppedPacketsInMac 0
scalar World.node[33].nic.mac1609_4 TooLittleTime 0
scalar World.node[33].nic.mac1609_4 TimesIntoBackoff 588
scalar World.node[33].nic.mac1609_4 SlotsBackoff 4333
scalar World.node[33].nic.mac1609_4 NumInternalContention 0
scalar World.node[33].nic.mac1609_4 totalBusyTime 1.150781788209
scalar World.node[40].appl.middleware.CaService #cam_sent 262
scalar World.node[40].appl.middleware.ExampleService #full_proofs 0
scalar World.node[40].appl.middleware.ExampleService #half_proofs 2
scalar World.node[40].appl.middleware.ExampleService #failed_proofs 0
scalar World.node[40].appl.middleware.ExampleService #loc_proof_send 26
scalar World.node[40].nic.phy80211p busyTime 0.0061396923076922
scalar World.node[40].nic.mac1609_4 ReceivedUnicastPackets 0
scalar World.node[40].nic.mac1609_4 ReceivedBroadcasts 3443
scalar World.node[40].nic.mac1609_4 SentPackets 288
scalar World.node[40].nic.mac1609_4 SentAcknowledgements 0
scalar World.node[40].nic.mac1609_4 SNIRLostPackets 543
scalar World.node[40].nic.mac1609_4 RXTXLostPackets 140
scalar World.node[40].nic.mac1609_4 TotalLostPackets 683
scalar World.node[40].nic.mac1609_4 DroppedPacketsInMac 0
scalar World.node[40].nic.mac1609_4 TooLittleTime 0
scalar World.node[40].nic.mac1609_4 TimesIntoBackoff 289
scalar World.node[40].nic.mac1609_4 SlotsBackoff 2163
scalar World.node[40].nic.mac1609_4 NumInternalContention 0
scalar World.node[40].nic.mac1609_4 totalBusyTime 0.661776
scalar World.node[41].appl.middleware.CaService #cam_sent 314
scalar World.node[41].appl.middleware.ExampleService #full_proofs 0
scalar World.node[41].appl.middleware.ExampleService #half_proofs 1
scalar World.node[41].appl.middleware.ExampleService #failed_proofs 0
scalar World.node[41].appl.middleware.ExampleService #loc_proof_send 25
scalar World.node[41].nic.phy80211p busyTime 0.0061122553191489
scalar World.node[41].nic.mac1609_4 ReceivedUnicastPackets 0
scalar World.node[41].nic.mac1609_4 ReceivedBroadcasts 2796
scalar World.node[41].nic.mac1609_4 SentPackets 339
scalar World.node[41].nic.mac1609_4 SentAcknowledgements 0
scalar World.node[41].nic.mac1609_4 SNIRLostPackets 805
scalar World.node[41].nic.mac1609_4 RXTXLostPackets 105
scalar World.node[41].nic.mac1609_4 TotalLostPackets 910
scalar World.node[41].nic.mac1609_4 DroppedPacketsInMac 0
scalar World.node[41].nic.mac1609_4 TooLittleTime 0
scalar World.node[41].nic.mac1609_4 TimesIntoBackoff 342
scalar World.node[41].nic.mac1609_4 SlotsBackoff 2550
scalar World.node[41].nic.mac1609_4 NumInternalContention 0
scalar World.node[41].nic.mac1609_4 totalBusyTime 0.606747
scalar World.node[37].appl.middleware.CaService #cam_sent 362
scalar World.node[37].appl.middleware.ExampleService #full_proofs 0
scalar World.node[37].appl.middleware.ExampleService #half_proofs 2
scalar World.node[37].appl.middleware.ExampleService #failed_proofs 0
scalar World.node[37].appl.middleware.ExampleService #loc_proof_send 33
scalar World.node[37].nic.phy80211p busyTime 0.0061899860139859
scalar World.node[37].nic.mac1609_4 ReceivedUnicastPackets 0
scalar World.node[37].nic.mac1609_4 ReceivedBroadcasts 4607
scalar World.node[37].nic.mac1609_4 SentPackets 395
scalar World.node[37].nic.mac1609_4 SentAcknowledgements 0
scalar World.node[37].nic.mac1609_4 SNIRLostPackets 921
scalar World.node[37].nic.mac1609_4 RXTXLostPackets 148
scalar World.node[37].nic.mac1609_4 TotalLostPackets 1069
scalar World.node[37].nic.mac1609_4 DroppedPacketsInMac 0
scalar World.node[37].nic.mac1609_4 TooLittleTime 0
scalar World.node[37].nic.mac1609_4 TimesIntoBackoff 399
scalar World.node[37].nic.mac1609_4 SlotsBackoff 3032
scalar World.node[37].nic.mac1609_4 NumInternalContention 0
scalar World.node[37].nic.mac1609_4 totalBusyTime 0.921531163769
scalar World.node[32].appl.middleware.CaService #cam_sent 536
scalar World.node[32].appl.middleware.ExampleService #full_proofs 0
scalar World.node[32].appl.middleware.ExampleService #half_proofs 3
scalar World.node[32].appl.middleware.ExampleService #failed_proofs 1
scalar World.node[32].appl.middleware.ExampleService #loc_proof_send 49
scalar World.node[32].nic.phy80211p busyTime 0.0055091981566817
scalar World.node[32].nic.mac1609_4 ReceivedUnicastPackets 0
scalar World.node[32].nic.mac1609_4 ReceivedBroadcasts 6887
scalar World.node[32].nic.mac1609_4 SentPackets 585
scalar World.node[32].nic.mac1609_4 SentAcknowledgements 0
scalar World.node[32].nic.mac1609_4 SNIRLostPackets 549
scalar World.node[32].nic.mac1609_4 RXTXLostPackets 235
scalar World.node[32].nic.mac1609_4 TotalLostPackets 784
scalar World.node[32].nic.mac1609_4 DroppedPacketsInMac 0
scalar World.node[32].nic.mac1609_4 TooLittleTime 0
scalar World.node[32].nic.mac1609_4 TimesIntoBackoff 593
scalar World.node[32].nic.mac1609_4 SlotsBackoff 4550
scalar World.node[32].nic.mac1609_4 NumInternalContention 0
scalar World.node[32].nic.mac1609_4 totalBusyTime 1.259554597389
scalar World.node[36].appl.middleware.CaService #cam_sent 411
scalar World.node[36].appl.middleware.ExampleService #full_proofs 0
scalar World.node[36].appl.middleware.ExampleService #half_proofs 1
scalar World.node[36].appl.middleware.ExampleService #failed_proofs 1
scalar World.node[36].appl.middleware.ExampleService #loc_proof_send 42
scalar World.node[36].nic.phy80211p busyTime 0.0059768674698794
scalar World.node[36].nic.mac1609_4 ReceivedUnicastPackets 0
scalar World.node[36].nic.mac1609_4 ReceivedBroadcasts 5625
scalar World.node[36].nic.mac1609_4 SentPackets 453
scalar World.node[36].nic.mac1609_4 SentAcknowledgements 0
scalar World.node[36].nic.mac1609_4 SNIRLostPackets 543
scalar World.node[36].nic.mac1609_4 RXTXLostPackets 234
scalar World.node[36].nic.mac1609_4 TotalLostPackets 777
scalar World.node[36].nic.mac1609_4 DroppedPacketsInMac 0
scalar World.node[36].nic.mac1609_4 TooLittleTime 0
scalar World.node[36].nic.mac1609_4 TimesIntoBackoff 463
scalar World.node[36].nic.mac1609_4 SlotsBackoff 3512
scalar World.node[36].nic.mac1609_4 NumInternalContention 0
scalar World.node[36].nic.mac1609_4 totalBusyTime 1.041949190011
scalar World.node[48].appl.middleware.CaService #cam_sent 108
scalar World.node[48].appl.middleware.ExampleService #full_proofs 0
scalar World.node[48].appl.middleware.ExampleService #half_proofs 0
scalar World.node[48].appl.middleware.ExampleService #failed_proofs 0
scalar World.node[48].appl.middleware.ExampleService #loc_proof_send 3
scalar World.node[48].nic.phy80211p busyTime 0.00516
scalar World.node[48].nic.mac1609_4 ReceivedUnicastPackets 0
scalar World.node[48].nic.mac1609_4 ReceivedBroadcasts 883
scalar World.node[48].nic.mac1609_4 SentPackets 111
scalar World.node[48].nic.mac1609_4 SentAcknowledgements 0
scalar World.node[48].nic.mac1609_4 SNIRLostPackets 135
scalar World.node[48].nic.mac1609_4 RXTXLostPackets 26
scalar World.node[48].nic.mac1609_4 TotalLostPackets 161
scalar World.node[48].nic.mac1609_4 DroppedPacketsInMac 0
scalar World.node[48].nic.mac1609_4 TooLittleTime 0
scalar World.node[48].nic.mac1609_4 TimesIntoBackoff 112
scalar World.node[48].nic.mac1609_4 SlotsBackoff 858
scalar World.node[48].nic.mac1609_4 NumInternalContention 0
scalar World.node[48].nic.mac1609_4 totalBusyTime 0.181551
scalar World.node[34].appl.middleware.CaService #cam_sent 569
scalar World.node[34].appl.middleware.ExampleService #full_proofs 0
scalar World.node[34].appl.middleware.ExampleService #half_proofs 4
scalar World.node[34].appl.middleware.ExampleService #failed_proofs 0
scalar World.node[34].appl.middleware.ExampleService #loc_proof_send 46
scalar World.node[34].nic.phy80211p busyTime 0.0056643130434778
scalar World.node[34].nic.mac1609_4 ReceivedUnicastPackets 0
scalar World.node[34].nic.mac1609_4 ReceivedBroadcasts 7041
scalar World.node[34].nic.mac1609_4 SentPackets 615
scalar World.node[34].nic.mac1609_4 SentAcknowledgements 0
scalar World.node[34].nic.mac1609_4 SNIRLostPackets 1058
scalar World.node[34].nic.mac1609_4 RXTXLostPackets 235
scalar World.node[34].nic.mac1609_4 TotalLostPackets 1293
scalar World.node[34].nic.mac1609_4 DroppedPacketsInMac 0
scalar World.node[34].nic.mac1609_4 TooLittleTime 0
scalar World.node[34].nic.mac1609_4 TimesIntoBackoff 620
scalar World.node[34].nic.mac1609_4 SlotsBackoff 4304
scalar World.node[34].nic.mac1609_4 NumInternalContention 0
scalar World.node[34].nic.mac1609_4 totalBusyTime 1.367599546055
scalar World.node[31].appl.middleware.CaService #cam_sent 591
scalar World.node[31].appl.middleware.ExampleService #full_proofs 0
scalar World.node[31].appl.middleware.ExampleService #half_proofs 4
scalar World.node[31].appl.middleware.ExampleService #failed_proofs 0
scalar World.node[31].appl.middleware.ExampleService #loc_proof_send 56
scalar World.node[31].nic.phy80211p busyTime 0.0054832659176024
scalar World.node[31].nic.mac1609_4 ReceivedUnicastPackets 0
scalar World.node[31].nic.mac1609_4 ReceivedBroadcasts 8431
scalar World.node[31].nic.mac1609_4 SentPackets 647
scalar World.node[31].nic.mac1609_4 SentAcknowledgements 0
scalar World.node[31].nic.mac1609_4 SNIRLostPackets 668
scalar World.node[31].nic.mac1609_4 RXTXLostPackets 255
scalar World.node[31].nic.mac1609_4 TotalLostPackets 923
scalar World.node[31].nic.mac1609_4 DroppedPacketsInMac 0
scalar World.node[31].nic.mac1609_4 TooLittleTime 0
scalar World.node[31].nic.mac1609_4 TimesIntoBackoff 656
scalar World.node[31].nic.mac1609_4 SlotsBackoff 5031
scalar World.node[31].nic.mac1609_4 NumInternalContention 0
scalar World.node[31].nic.mac1609_4 totalBusyTime 1.531080146684
scalar World.node[43].appl.middleware.CaService #cam_sent 277
scalar World.node[43].appl.middleware.ExampleService #full_proofs 0
scalar World.node[43].appl.middleware.ExampleService #half_proofs 2
scalar World.node[43].appl.middleware.ExampleService #failed_proofs 0
scalar World.node[43].appl.middleware.ExampleService #loc_proof_send 28
scalar World.node[43].nic.phy80211p busyTime 0.0061656637168141
scalar World.node[43].nic.mac1609_4 ReceivedUnicastPackets 0
scalar World.node[43].nic.mac1609_4 ReceivedBroadcasts 3715
scalar World.node[43].nic.mac1609_4 SentPackets 305
scalar World.node[43].nic.mac1609_4 SentAcknowledgements 0
scalar World.node[43].nic.mac1609_4 SNIRLostPackets 645
scalar World.node[43].nic.mac1609_4 RXTXLostPackets 93
scalar World.node[43].nic.mac1609_4 TotalLostPackets 738
scalar World.node[43].nic.mac1609_4 DroppedPacketsInMac 0
scalar World.node[43].nic.mac1609_4 TooLittleTime 0
scalar World.node[43].nic.mac1609_4 TimesIntoBackoff 305
scalar World.node[43].nic.mac1609_4 SlotsBackoff 2350
scalar World.node[43].nic.mac1609_4 NumInternalContention 0
scalar World.node[43].nic.mac1609_4 totalBusyTime 0.720729
scalar World.node[38].appl.middleware.CaService #cam_sent 511
scalar World.node[38].appl.middleware.ExampleService #full_proofs 0
scalar World.node[38].appl.middleware.ExampleService #half_proofs 3
scalar World.node[38].appl.middleware.ExampleService #failed_proofs 0
scalar World.node[38].appl.middleware.ExampleService #loc_proof_send 34
scalar World.node[38].nic.phy80211p busyTime 0.0058376915422883
scalar World.node[38].nic.mac1609_4 ReceivedUnicastPackets 0
scalar World.node[38].nic.mac1609_4 ReceivedBroadcasts 4941
scalar World.node[38].nic.mac1609_4 SentPackets 545
scalar World.node[38].nic.mac1609_4 SentAcknowledgements 0
scalar World.node[38].nic.mac1609_4 SNIRLostPackets 2400
scalar World.node[38].nic.mac1609_4 RXTXLostPackets 150
scalar World.node[38].nic.mac1609_4 TotalLostPackets 2550
scalar World.node[38].nic.mac1609_4 DroppedPacketsInMac 0
scalar World.node[38].nic.mac1609_4 TooLittleTime 0
scalar World.node[38].nic.mac1609_4 TimesIntoBackoff 549
scalar World.node[38].nic.mac1609_4 SlotsBackoff 4200
scalar World.node[38].nic.mac1609_4 NumInternalContention 0
scalar World.node[38].nic.mac1609_4 totalBusyTime 1.225001037288
scalar World.node[45].appl.middleware.CaService #cam_sent 377
scalar World.node[45].appl.middleware.ExampleService #full_proofs 0
scalar World.node[45].appl.middleware.ExampleService #half_proofs 2
scalar World.node[45].appl.middleware.ExampleService #failed_proofs 0
scalar World.node[45].appl.middleware.ExampleService #loc_proof_send 29
scalar World.node[45].nic.phy80211p busyTime 0.005631816793893
scalar World.node[45].nic.mac1609_4 ReceivedUnicastPackets 0
scalar World.node[45].nic.mac1609_4 ReceivedBroadcasts 4209
scalar World.node[45].nic.mac1609_4 SentPackets 406
scalar World.node[45].nic.mac1609_4 SentAcknowledgements 0
scalar World.node[45].nic.mac1609_4 SNIRLostPackets 398
scalar World.node[45].nic.mac1609_4 RXTXLostPackets 94
scalar World.node[45].nic.mac1609_4 TotalLostPackets 492
scalar World.node[45].nic.mac1609_4 DroppedPacketsInMac 0
scalar World.node[45].nic.mac1609_4 TooLittleTime 0
scalar World.node[45].nic.mac1609_4 TimesIntoBackoff 410
scalar World.node[45].nic.mac1609_4 SlotsBackoff 2887
scalar World.node[45].nic.mac1609_4 NumInternalContention 0
scalar World.node[45].nic.mac1609_4 totalBusyTime 0.782790016879
scalar World.node[44].appl.middleware.CaService #cam_sent 368
scalar World.node[44].appl.middleware.ExampleService #full_proofs 0
scalar World.node[44].appl.middleware.ExampleService #half_proofs 2
scalar World.node[44].appl.middleware.ExampleService #failed_proofs 0
scalar World.node[44].appl.middleware.ExampleService #loc_proof_send 28
scalar World.node[44].nic.phy80211p busyTime 0.005756524137931
scalar World.node[44].nic.mac1609_4 ReceivedUnicastPackets 0
scalar World.node[44].nic.mac1609_4 ReceivedBroadcasts 4249
scalar World.node[44].nic.mac1609_4 SentPackets 396
scalar World.node[44].nic.mac1609_4 SentAcknowledgements 0
scalar World.node[44].nic.mac1609_4 SNIRLostPackets 971
scalar World.node[44].nic.mac1609_4 RXTXLostPackets 92
scalar World.node[44].nic.mac1609_4 TotalLostPackets 1063
scalar World.node[44].nic.mac1609_4 DroppedPacketsInMac 0
scalar World.node[44].nic.mac1609_4 TooLittleTime 0
scalar World.node[44].nic.mac1609_4 TimesIntoBackoff 399
scalar World.node[44].nic.mac1609_4 SlotsBackoff 3033
scalar World.node[44].nic.mac1609_4 NumInternalContention 0
scalar World.node[44].nic.mac1609_4 totalBusyTime 0.874220475813
scalar World.node[35].appl.middleware.CaService #cam_sent 679
scalar World.node[35].appl.middleware.ExampleService #full_proofs 0
scalar World.node[35].appl.middleware.ExampleService #half_proofs 4
scalar World.node[35].appl.middleware.ExampleService #failed_proofs 1
scalar World.node[35].appl.middleware.ExampleService #loc_proof_send 56
scalar World.node[35].nic.phy80211p busyTime 0.0055169999999994
scalar World.node[35].nic.mac1609_4 ReceivedUnicastPackets 0
scalar World.node[35].nic.mac1609_4 ReceivedBroadcasts 7820
scalar World.node[35].nic.mac1609_4 SentPackets 735
scalar World.node[35].nic.mac1609_4 SentAcknowledgements 0
scalar World.node[35].nic.mac1609_4 SNIRLostPackets 963
scalar World.node[35].nic.mac1609_4 RXTXLostPackets 262
scalar World.node[35].nic.mac1609_4 TotalLostPackets 1225
scalar World.node[35].nic.mac1609_4 DroppedPacketsInMac 0
scalar World.node[35].nic.mac1609_4 TooLittleTime 0
scalar World.node[35].nic.mac1609_4 TimesIntoBackoff 741
scalar World.node[35].nic.mac1609_4 SlotsBackoff 5696
scalar World.node[35].nic.mac1609_4 NumInternalContention 0
scalar World.node[35].nic.mac1609_4 totalBusyTime 1.499080301272
scalar World.node[42].appl.middleware.CaService #cam_sent 484
scalar World.node[42].appl.middleware.ExampleService #full_proofs 0
scalar World.node[42].appl.middleware.ExampleService #half_proofs 4
scalar World.node[42].appl.middleware.ExampleService #failed_proofs 0
scalar World.node[42].appl.middleware.ExampleService #loc_proof_send 38
scalar World.node[42].nic.phy80211p busyTime 0.005534068965517
scalar World.node[42].nic.mac1609_4 ReceivedUnicastPackets 0
scalar World.node[42].nic.mac1609_4 ReceivedBroadcasts 5665
scalar World.node[42].nic.mac1609_4 SentPackets 522
scalar World.node[42].nic.mac1609_4 SentAcknowledgements 0
scalar World.node[42].nic.mac1609_4 SNIRLostPackets 1327
scalar World.node[42].nic.mac1609_4 RXTXLostPackets 214
scalar World.node[42].nic.mac1609_4 TotalLostPackets 1541
scalar World.node[42].nic.mac1609_4 DroppedPacketsInMac 0
scalar World.node[42].nic.mac1609_4 TooLittleTime 0
scalar World.node[42].nic.mac1609_4 TimesIntoBackoff 531
scalar World.node[42].nic.mac1609_4 SlotsBackoff 3955
scalar World.node[42].nic.mac1609_4 NumInternalContention 0
scalar World.node[42].nic.mac1609_4 totalBusyTime 1.182842092733
scalar World.node[58].appl.middleware.CaService #cam_sent 62
scalar World.node[58].appl.middleware.ExampleService #full_proofs 0
scalar World.node[58].appl.middleware.ExampleService #half_proofs 0
scalar World.node[58].appl.middleware.ExampleService #failed_proofs 0
scalar World.node[58].appl.middleware.ExampleService #loc_proof_send 3
scalar World.node[58].nic.phy80211p busyTime 0.0048951111111111
scalar World.node[58].nic.mac1609_4 ReceivedUnicastPackets 0
scalar World.node[58].nic.mac1609_4 ReceivedBroadcasts 531
scalar World.node[58].nic.mac1609_4 SentPackets 65
scalar World.node[58].nic.mac1609_4 SentAcknowledgements 0
scalar World.node[58].nic.mac1609_4 SNIRLostPackets 13
scalar World.node[58].nic.mac1609_4 RXTXLostPackets 19
scalar World.node[58].nic.mac1609_4 TotalLostPackets 32
scalar World.node[58].nic.mac1609_4 DroppedPacketsInMac 0
scalar World.node[58].nic.mac1609_4 TooLittleTime 0
scalar World.node[58].nic.mac1609_4 TimesIntoBackoff 66
scalar World.node[58].nic.mac1609_4 SlotsBackoff 527
scalar World.node[58].nic.mac1609_4 NumInternalContention 0
scalar World.node[58].nic.mac1609_4 totalBusyTime 0.097337
scalar World.node[52].appl.middleware.CaService #cam_sent 322
scalar World.node[52].appl.middleware.ExampleService #full_proofs 0
scalar World.node[52].appl.middleware.ExampleService #half_proofs 1
scalar World.node[52].appl.middleware.ExampleService #failed_proofs 0
scalar World.node[52].appl.middleware.ExampleService #loc_proof_send 19
scalar World.node[52].nic.phy80211p busyTime 0.0047751919191919
scalar World.node[52].nic.mac1609_4 ReceivedUnicastPackets 0
scalar World.node[52].nic.mac1609_4 ReceivedBroadcasts 2640
scalar World.node[52].nic.mac1609_4 SentPackets 341
scalar World.node[52].nic.mac1609_4 SentAcknowledgements 0
scalar World.node[52].nic.mac1609_4 SNIRLostPackets 300
scalar World.node[52].nic.mac1609_4 RXTXLostPackets 56
scalar World.node[52].nic.mac1609_4 TotalLostPackets 356
scalar World.node[52].nic.mac1609_4 DroppedPacketsInMac 0
scalar World.node[52].nic.mac1609_4 TooLittleTime 0
scalar World.node[52].nic.mac1609_4 TimesIntoBackoff 344
scalar World.node[52].nic.mac1609_4 SlotsBackoff 2516
scalar World.node[52].nic.mac1609_4 NumInternalContention 0
scalar World.node[52].nic.mac1609_4 totalBusyTime 0.520069055249
scalar World.node[46].appl.middleware.CaService #cam_sent 453
scalar World.node[46].appl.middleware.ExampleService #full_proofs 0
scalar World.node[46].appl.middleware.ExampleService #half_proofs 3
scalar World.node[46].appl.middleware.ExampleService #failed_proofs 0
scalar World.node[46].appl.middleware.ExampleService #loc_proof_send 39
scalar World.node[46].nic.phy80211p busyTime 0.0052072879581151
scalar World.node[46].nic.mac1609_4 ReceivedUnicastPackets 0
scalar World.node[46].nic.mac1609_4 ReceivedBroadcasts 5838
scalar World.node[46].nic.mac1609_4 SentPackets 492
scalar World.node[46].nic.mac1609_4 SentAcknowledgements 0
scalar World.node[46].nic.mac1609_4 SNIRLostPackets 328
scalar World.node[46].nic.mac1609_4 RXTXLostPackets 214
scalar World.node[46].nic.mac1609_4 TotalLostPackets 542
scalar World.node[46].nic.mac1609_4 DroppedPacketsInMac 0
scalar World.node[46].nic.mac1609_4 TooLittleTime 0
scalar World.node[46].nic.mac1609_4 TimesIntoBackoff 497
scalar World.node[46].nic.mac1609_4 SlotsBackoff 3583
scalar World.node[46].nic.mac1609_4 NumInternalContention 0
scalar World.node[46].nic.mac1609_4 totalBusyTime 1.061845063
scalar World.node[47].appl.middleware.CaService #cam_sent 463
scalar World.node[47].appl.middleware.ExampleService #full_proofs 0
scalar World.node[47].appl.middleware.ExampleService #half_proofs 3
scalar World.node[47].appl.middleware.ExampleService #failed_proofs 0
scalar World.node[47].appl.middleware.ExampleService #loc_proof_send 33
scalar World.node[47].nic.phy80211p busyTime 0.0050328636363636
scalar World.node[47].nic.mac1609_4 ReceivedUnicastPackets 0
scalar World.node[47].nic.mac1609_4 ReceivedBroadcasts 5267
scalar World.node[47].nic.mac1609_4 SentPackets 496
scalar World.node[47].nic.mac1609_4 SentAcknowledgements 0
scalar World.node[47].nic.mac1609_4 SNIRLostPackets 235
scalar World.node[47].nic.mac1609_4 RXTXLostPackets 123
scalar World.node[47].nic.mac1609_4 TotalLostPackets 358
scalar World.node[47].nic.mac1609_4 DroppedPacketsInMac 0
scalar World.node[47].nic.mac1609_4 TooLittleTime 0
scalar World.node[47].nic.mac1609_4 TimesIntoBackoff 502
scalar World.node[47].nic.mac1609_4 SlotsBackoff 3520
scalar World.node[47].nic.mac1609_4 NumInternalContention 0
scalar World.node[47].nic.mac1609_4 totalBusyTime 0.952032762645
scalar World.node[56].appl.middleware.CaService #cam_sent 238
scalar World.node[56].appl.middleware.ExampleService #full_proofs 0
scalar World.node[56].appl.middleware.ExampleService #half_proofs 1
scalar World.node[56].appl.middleware.ExampleService #failed_proofs 0
scalar World.node[56].appl.middleware.ExampleService #loc_proof_send 15
scalar World.node[56].nic.phy80211p busyTime 0.0045068444444444
scalar World.node[56].nic.mac1609_4 ReceivedUnicastPackets 0
scalar World.node[56].nic.mac1609_4 ReceivedBroadcasts 2419
scalar World.node[56].nic.mac1609_4 SentPackets 253
scalar World.node[56].nic.mac1609_4 SentAcknowledgements 0
scalar World.node[56].nic.mac1609_4 SNIRLostPackets 93
scalar World.node[56].nic.mac1609_4 RXTXLostPackets 74
scalar World.node[56].nic.mac1609_4 TotalLostPackets 167
scalar World.node[56].nic.mac1609_4 DroppedPacketsInMac 0
scalar World.node[56].nic.mac1609_4 TooLittleTime 0
scalar World.node[56].nic.mac1609_4 TimesIntoBackoff 253
scalar World.node[56].nic.mac1609_4 SlotsBackoff 1861
scalar World.node[56].nic.mac1609_4 NumInternalContention 0
scalar World.node[56].nic.mac1609_4 totalBusyTime 0.441469183053
scalar World.node[39].appl.middleware.CaService #cam_sent 823
scalar World.node[39].appl.middleware.ExampleService #full_proofs 0
scalar World.node[39].appl.middleware.ExampleService #half_proofs 6
scalar World.node[39].appl.middleware.ExampleService #failed_proofs 0
scalar World.node[39].appl.middleware.ExampleService #loc_proof_send 64
scalar World.node[39].nic.phy80211p busyTime 0.005281165048543
scalar World.node[39].nic.mac1609_4 ReceivedUnicastPackets 0
scalar World.node[39].nic.mac1609_4 ReceivedBroadcasts 9310
scalar World.node[39].nic.mac1609_4 SentPackets 887
scalar World.node[39].nic.mac1609_4 SentAcknowledgements 0
scalar World.node[39].nic.mac1609_4 SNIRLostPackets 838
scalar World.node[39].nic.mac1609_4 RXTXLostPackets 275
scalar World.node[39].nic.mac1609_4 TotalLostPackets 1113
scalar World.node[39].nic.mac1609_4 DroppedPacketsInMac 0
scalar World.node[39].nic.mac1609_4 TooLittleTime 0
scalar World.node[39].nic.mac1609_4 TimesIntoBackoff 889
scalar World.node[39].nic.mac1609_4 SlotsBackoff 6674
scalar World.node[39].nic.mac1609_4 NumInternalContention 0
scalar World.node[39].nic.mac1609_4 totalBusyTime 1.7373120699
scalar World.node[53].appl.middleware.CaService #cam_sent 284
scalar World.node[53].appl.middleware.ExampleService #full_proofs 0
scalar World.node[53].appl.middleware.ExampleService #half_proofs 2
scalar World.node[53].appl.middleware.ExampleService #failed_proofs 0
scalar World.node[53].appl.middleware.ExampleService #loc_proof_send 20
scalar World.node[53].nic.phy80211p busyTime 0.0046326376811594
scalar World.node[53].nic.mac1609_4 ReceivedUnicastPackets 0
scalar World.node[53].nic.mac1609_4 ReceivedBroadcasts 3521
scalar World.node[53].nic.mac1609_4 SentPackets 304
scalar World.node[53].nic.mac1609_4 SentAcknowledgements 0
scalar World.node[53].nic.mac1609_4 SNIRLostPackets 437
scalar World.node[53].nic.mac1609_4 RXTXLostPackets 88
scalar World.node[53].nic.mac1609_4 TotalLostPackets 525
scalar World.node[53].nic.mac1609_4 DroppedPacketsInMac 0
scalar World.node[53].nic.mac1609_4 TooLittleTime 0
scalar World.node[53].nic.mac1609_4 TimesIntoBackoff 305
scalar World.node[53].nic.mac1609_4 SlotsBackoff 2382
scalar World.node[53].nic.mac1609_4 NumInternalContention 0
scalar World.node[53].nic.mac1609_4 totalBusyTime 0.681472402314
scalar World.node[50].appl.middleware.CaService #cam_sent 472
scalar World.node[50].appl.middleware.ExampleService #full_proofs 0
scalar World.node[50].appl.middleware.ExampleService #half_proofs 3
scalar World.node[50].appl.middleware.ExampleService #failed_proofs 0
scalar World.node[50].appl.middleware.ExampleService #loc_proof_send 28
scalar World.node[50].nic.phy80211p busyTime 0.0045243314917127
scalar World.node[50].nic.mac1609_4 ReceivedUnicastPackets 0
scalar World.node[50].nic.mac1609_4 ReceivedBroadcasts 4556
scalar World.node[50].nic.mac1609_4 SentPackets 500
scalar World.node[50].nic.mac1609_4 SentAcknowledgements 0
scalar World.node[50].nic.mac1609_4 SNIRLostPackets 530
scalar World.node[50].nic.mac1609_4 RXTXLostPackets 72
scalar World.node[50].nic.mac1609_4 TotalLostPackets 602
scalar World.node[50].nic.mac1609_4 DroppedPacketsInMac 0
scalar World.node[50].nic.mac1609_4 TooLittleTime 0
scalar World.node[50].nic.mac1609_4 TimesIntoBackoff 501
scalar World.node[50].nic.mac1609_4 SlotsBackoff 3910
scalar World.node[50].nic.mac1609_4 NumInternalContention 0
scalar World.node[50].nic.mac1609_4 totalBusyTime 0.886340305998
scalar World.node[57].appl.middleware.CaService #cam_sent 403
scalar World.node[57].appl.middleware.ExampleService #full_proofs 0
scalar World.node[57].appl.middleware.ExampleService #half_proofs 2
scalar World.node[57].appl.middleware.ExampleService #failed_proofs 0
scalar World.node[57].appl.middleware.ExampleService #loc_proof_send 23
scalar World.node[57].nic.phy80211p busyTime 0.003918294117647
scalar World.node[57].nic.mac1609_4 ReceivedUnicastPackets 0
scalar World.node[57].nic.mac1609_4 ReceivedBroadcasts 3185
scalar World.node[57].nic.mac1609_4 SentPackets 426
scalar World.node[57].nic.mac1609_4 SentAcknowledgements 0
scalar World.node[57].nic.mac1609_4 SNIRLostPackets 120
scalar World.node[57].nic.mac1609_4 RXTXLostPackets 80
scalar World.node[57].nic.mac1609_4 TotalLostPackets 200
scalar World.node[57].nic.mac1609_4 DroppedPacketsInMac 0
scalar World.node[57].nic.mac1609_4 TooLittleTime 0
scalar World.node[57].nic.mac1609_4 TimesIntoBackoff 427
scalar World.node[57].nic.mac1609_4 SlotsBackoff 3163
scalar World.node[57].nic.mac1609_4 NumInternalContention 0
scalar World.node[57].nic.mac1609_4 totalBusyTime 0.596058218477
scalar World.node[51].appl.middleware.CaService #cam_sent 505
scalar World.node[51].appl.middleware.ExampleService #full_proofs 0
scalar World.node[51].appl.middleware.ExampleService #half_proofs 4
scalar World.node[51].appl.middleware.ExampleService #failed_proofs 0
scalar World.node[51].appl.middleware.ExampleService #loc_proof_send 31
scalar World.node[51].nic.phy80211p busyTime 0.0042761132075471
scalar World.node[51].nic.mac1609_4 ReceivedUnicastPackets 0
scalar World.node[51].nic.mac1609_4 ReceivedBroadcasts 5025
scalar World.node[51].nic.mac1609_4 SentPackets 536
scalar World.node[51].nic.mac1609_4 SentAcknowledgements 0
scalar World.node[51].nic.mac1609_4 SNIRLostPackets 615
scalar World.node[51].nic.mac1609_4 RXTXLostPackets 59
scalar World.node[51].nic.mac1609_4 TotalLostPackets 674
scalar World.node[51].nic.mac1609_4 DroppedPacketsInMac 0
scalar World.node[51].nic.mac1609_4 TooLittleTime 0
scalar World.node[51].nic.mac1609_4 TimesIntoBackoff 540
scalar World.node[51].nic.mac1609_4 SlotsBackoff 3988
scalar World.node[51].nic.mac1609_4 NumInternalContention 0
scalar World.node[51].nic.mac1609_4 totalBusyTime 0.977160069512
scalar World.node[59].appl.middleware.CaService #cam_sent 418
scalar World.node[59].appl.middleware.ExampleService #full_proofs 1
scalar World.node[59].appl.middleware.ExampleService #half_proofs 1
scalar World.node[59].appl.middleware.ExampleService #failed_proofs 0
scalar World.node[59].appl.middleware.ExampleService #loc_proof_send 17
scalar World.node[59].nic.phy80211p busyTime 0.003383488
scalar World.node[59].nic.mac1609_4 ReceivedUnicastPackets 0
scalar World.node[59].nic.mac1609_4 ReceivedBroadcasts 2243
scalar World.node[59].nic.mac1609_4 SentPackets 435
scalar World.node[59].nic.mac1609_4 SentAcknowledgements 0
scalar World.node[59].nic.mac1609_4 SNIRLostPackets 380
scalar World.node[59].nic.mac1609_4 RXTXLostPackets 38
scalar World.node[59].nic.mac1609_4 TotalLostPackets 418
scalar World.node[59].nic.mac1609_4 DroppedPacketsInMac 0
scalar World.node[59].nic.mac1609_4 TooLittleTime 0
scalar World.node[59].nic.mac1609_4 TimesIntoBackoff 439
scalar World.node[59].nic.mac1609_4 SlotsBackoff 3356
scalar World.node[59].nic.mac1609_4 NumInternalContention 0
scalar World.node[59].nic.mac1609_4 totalBusyTime 0.489275075332
scalar World.node[54].appl.middleware.CaService #cam_sent 494
scalar World.node[54].appl.middleware.ExampleService #full_proofs 0
scalar World.node[54].appl.middleware.ExampleService #half_proofs 3
scalar World.node[54].appl.middleware.ExampleService #failed_proofs 0
scalar World.node[54].appl.middleware.ExampleService #loc_proof_send 29
scalar World.node[54].nic.phy80211p busyTime 0.0040238375634518
scalar World.node[54].nic.mac1609_4 ReceivedUnicastPackets 0
scalar World.node[54].nic.mac1609_4 ReceivedBroadcasts 4458
scalar World.node[54].nic.mac1609_4 SentPackets 523
scalar World.node[54].nic.mac1609_4 SentAcknowledgements 0
scalar World.node[54].nic.mac1609_4 SNIRLostPackets 451
scalar World.node[54].nic.mac1609_4 RXTXLostPackets 91
scalar World.node[54].nic.mac1609_4 TotalLostPackets 542
scalar World.node[54].nic.mac1609_4 DroppedPacketsInMac 0
scalar World.node[54].nic.mac1609_4 TooLittleTime 0
scalar World.node[54].nic.mac1609_4 TimesIntoBackoff 523
scalar World.node[54].nic.mac1609_4 SlotsBackoff 4105
scalar World.node[54].nic.mac1609_4 NumInternalContention 0
scalar World.node[54].nic.mac1609_4 totalBusyTime 0.868099200291
scalar World.node[55].appl.middleware.CaService #cam_sent 408
scalar World.node[55].appl.middleware.ExampleService #full_proofs 0
scalar World.node[55].appl.middleware.ExampleService #half_proofs 4
scalar World.node[55].appl.middleware.ExampleService #failed_proofs 0
scalar World.node[55].appl.middleware.ExampleService #loc_proof_send 32
scalar World.node[55].nic.phy80211p busyTime 0.0039476582914573
scalar World.node[55].nic.mac1609_4 ReceivedUnicastPackets 0
scalar World.node[55].nic.mac1609_4 ReceivedBroadcasts 4535
scalar World.node[55].nic.mac1609_4 SentPackets 440
scalar World.node[55].nic.mac1609_4 SentAcknowledgements 0
scalar World.node[55].nic.mac1609_4 SNIRLostPackets 331
scalar World.node[55].nic.mac1609_4 RXTXLostPackets 96
scalar World.node[55].nic.mac1609_4 TotalLostPackets 427
scalar World.node[55].nic.mac1609_4 DroppedPacketsInMac 0
scalar World.node[55].nic.mac1609_4 TooLittleTime 0
scalar World.node[55].nic.mac1609_4 TimesIntoBackoff 444
scalar World.node[55].nic.mac1609_4 SlotsBackoff 3387
scalar World.node[55].nic.mac1609_4 NumInternalContention 0
scalar World.node[55].nic.mac1609_4 totalBusyTime 0.848888526089
scalar World.node[64].appl.middleware.CaService #cam_sent 182
scalar World.node[64].appl.middleware.ExampleService #full_proofs 0
scalar World.node[64].appl.middleware.ExampleService #half_proofs 1
scalar World.node[64].appl.middleware.ExampleService #failed_proofs 0
scalar World.node[64].appl.middleware.ExampleService #loc_proof_send 5
scalar World.node[64].nic.phy80211p busyTime 0.003177037037037
scalar World.node[64].nic.mac1609_4 ReceivedUnicastPackets 0
scalar World.node[64].nic.mac1609_4 ReceivedBroadcasts 932
scalar World.node[64].nic.mac1609_4 SentPackets 187
scalar World.node[64].nic.mac1609_4 SentAcknowledgements 0
scalar World.node[64].nic.mac1609_4 SNIRLostPackets 129
scalar World.node[64].nic.mac1609_4 RXTXLostPackets 9
scalar World.node[64].nic.mac1609_4 TotalLostPackets 138
scalar World.node[64].nic.mac1609_4 DroppedPacketsInMac 0
scalar World.node[64].nic.mac1609_4 TooLittleTime 0
scalar World.node[64].nic.mac1609_4 TimesIntoBackoff 187
scalar World.node[64].nic.mac1609_4 SlotsBackoff 1480
scalar World.node[64].nic.mac1609_4 NumInternalContention 0
scalar World.node[64].nic.mac1609_4 totalBusyTime 0.200547
scalar World.node[49].appl.middleware.CaService #cam_sent 664
scalar World.node[49].appl.middleware.ExampleService #full_proofs 1
scalar World.node[49].appl.middleware.ExampleService #half_proofs 3
scalar World.node[49].appl.middleware.ExampleService #failed_proofs 1
scalar World.node[49].appl.middleware.ExampleService #loc_proof_send 37
scalar World.node[49].nic.phy80211p busyTime 0.0041088641975305
scalar World.node[49].nic.mac1609_4 ReceivedUnicastPackets 0
scalar World.node[49].nic.mac1609_4 ReceivedBroadcasts 6572
scalar World.node[49].nic.mac1609_4 SentPackets 701
scalar World.node[49].nic.mac1609_4 SentAcknowledgements 0
scalar World.node[49].nic.mac1609_4 SNIRLostPackets 1684
scalar World.node[49].nic.mac1609_4 RXTXLostPackets 145
scalar World.node[49].nic.mac1609_4 TotalLostPackets 1829
scalar World.node[49].nic.mac1609_4 DroppedPacketsInMac 0
scalar World.node[49].nic.mac1609_4 TooLittleTime 0
scalar World.node[49].nic.mac1609_4 TimesIntoBackoff 706
scalar World.node[49].nic.mac1609_4 SlotsBackoff 5570
scalar World.node[49].nic.mac1609_4 NumInternalContention 0
scalar World.node[49].nic.mac1609_4 totalBusyTime 1.430045075043
scalar World.node[60].appl.middleware.CaService #cam_sent 452
scalar World.node[60].appl.middleware.ExampleService #full_proofs 0
scalar World.node[60].appl.middleware.ExampleService #half_proofs 2
scalar World.node[60].appl.middleware.ExampleService #failed_proofs 0
scalar World.node[60].appl.middleware.ExampleService #loc_proof_send 21
scalar World.node[60].nic.phy80211p busyTime 0.0031961578947368
scalar World.node[60].nic.mac1609_4 ReceivedUnicastPackets 0
scalar World.node[60].nic.mac1609_4 ReceivedBroadcasts 2713
scalar World.node[60].nic.mac1609_4 SentPackets 473
scalar World.node[60].nic.mac1609_4 SentAcknowledgements 0
scalar World.node[60].nic.mac1609_4 SNIRLostPackets 293
scalar World.node[60].nic.mac1609_4 RXTXLostPackets 43
scalar World.node[60].nic.mac1609_4 TotalLostPackets 336
scalar World.node[60].nic.mac1609_4 DroppedPacketsInMac 0
scalar World.node[60].nic.mac1609_4 TooLittleTime 0
scalar World.node[60].nic.mac1609_4 TimesIntoBackoff 476
scalar World.node[60].nic.mac1609_4 SlotsBackoff 3560
scalar World.node[60].nic.mac1609_4 NumInternalContention 0
scalar World.node[60].nic.mac1609_4 totalBusyTime 0.559457
scalar World.node[61].appl.middleware.CaService #cam_sent 425
scalar World.node[61].appl.middleware.ExampleService #full_proofs 0
scalar World.node[61].appl.middleware.ExampleService #half_proofs 3
scalar World.node[61].appl.middleware.ExampleService #failed_proofs 0
scalar World.node[61].appl.middleware.ExampleService #loc_proof_send 25
scalar World.node[61].nic.phy80211p busyTime 0.003842891566265
scalar World.node[61].nic.mac1609_4 ReceivedUnicastPackets 0
scalar World.node[61].nic.mac1609_4 ReceivedBroadcasts 3091
scalar World.node[61].nic.mac1609_4 SentPackets 450
scalar World.node[61].nic.mac1609_4 SentAcknowledgements 0
scalar World.node[61].nic.mac1609_4 SNIRLostPackets 872
scalar World.node[61].nic.mac1609_4 RXTXLostPackets 37
scalar World.node[61].nic.mac1609_4 TotalLostPackets 909
scalar World.node[61].nic.mac1609_4 DroppedPacketsInMac 0
scalar World.node[61].nic.mac1609_4 TooLittleTime 0
scalar World.node[61].nic.mac1609_4 TimesIntoBackoff 451
scalar World.node[61].nic.mac1609_4 SlotsBackoff 3538
scalar World.node[61].nic.mac1609_4 NumInternalContention 0
scalar World.node[61].nic.mac1609_4 totalBusyTime 0.704186096138
scalar World.node[65].appl.middleware.CaService #cam_sent 404
scalar World.node[65].appl.middleware.ExampleService #full_proofs 0
scalar World.node[65].appl.middleware.ExampleService #half_proofs 2
scalar World.node[65].appl.middleware.ExampleService #failed_proofs 0
scalar World.node[65].appl.middleware.ExampleService #loc_proof_send 17
scalar World.node[65].nic.phy80211p busyTime 0.0038844297520661
scalar World.node[65].nic.mac1609_4 ReceivedUnicastPackets 0
scalar World.node[65].nic.mac1609_4 ReceivedBroadcasts 2420
scalar World.node[65].nic.mac1609_4 SentPackets 421
scalar World.node[65].nic.mac1609_4 SentAcknowledgements 0
scalar World.node[65].nic.mac1609_4 SNIRLostPackets 495
scalar World.node[65].nic.mac1609_4 RXTXLostPackets 37
scalar World.node[65].nic.mac1609_4 TotalLostPackets 532
scalar World.node[65].nic.mac1609_4 DroppedPacketsInMac 0
scalar World.node[65].nic.mac1609_4 TooLittleTime 0
scalar World.node[65].nic.mac1609_4 TimesIntoBackoff 423
scalar World.node[65].nic.mac1609_4 SlotsBackoff 3059
scalar World.node[65].nic.mac1609_4 NumInternalContention 0
scalar World.node[65].nic.mac1609_4 totalBusyTime 0.53493308384
scalar World.node[66].appl.middleware.CaService #cam_sent 351
scalar World.node[66].appl.middleware.ExampleService #full_proofs 0
scalar World.node[66].appl.middleware.ExampleService #half_proofs 2
scalar World.node[66].appl.middleware.ExampleService #failed_proofs 0
scalar World.node[66].appl.middleware.ExampleService #loc_proof_send 19
scalar World.node[66].nic.phy80211p busyTime 0.0042489105691056
scalar World.node[66].nic.mac1609_4 ReceivedUnicastPackets 0
scalar World.node[66].nic.mac1609_4 ReceivedBroadcasts 2848
scalar World.node[66].nic.mac1609_4 SentPackets 370
scalar World.node[66].nic.mac1609_4 SentAcknowledgements 0
scalar World.node[66].nic.mac1609_4 SNIRLostPackets 396
scalar World.node[66].nic.mac1609_4 RXTXLostPackets 33
scalar World.node[66].nic.mac1609_4 TotalLostPackets 429
scalar World.node[66].nic.mac1609_4 DroppedPacketsInMac 0
scalar World.node[66].nic.mac1609_4 TooLittleTime 0
scalar World.node[66].nic.mac1609_4 TimesIntoBackoff 370
scalar World.node[66].nic.mac1609_4 SlotsBackoff 2846
scalar World.node[66].nic.mac1609_4 NumInternalContention 0
scalar World.node[66].nic.mac1609_4 totalBusyTime 0.577794050041
scalar World.node[67].appl.middleware.CaService #cam_sent 280
scalar World.node[67].appl.middleware.ExampleService #full_proofs 0
scalar World.node[67].appl.middleware.ExampleService #half_proofs 2
scalar World.node[67].appl.middleware.ExampleService #failed_proofs 0
scalar World.node[67].appl.middleware.ExampleService #loc_proof_send 13
scalar World.node[67].nic.phy80211p busyTime 0.0043595714285714
scalar World.node[67].nic.mac1609_4 ReceivedUnicastPackets 0
scalar World.node[67].nic.mac1609_4 ReceivedBroadcasts 2235
scalar World.node[67].nic.mac1609_4 SentPackets 293
scalar World.node[67].nic.mac1609_4 SentAcknowledgements 0
scalar World.node[67].nic.mac1609_4 SNIRLostPackets 794
scalar World.node[67].nic.mac1609_4 RXTXLostPackets 42
scalar World.node[67].nic.mac1609_4 TotalLostPackets 836
scalar World.node[67].nic.mac1609_4 DroppedPacketsInMac 0
scalar World.node[67].nic.mac1609_4 TooLittleTime 0
scalar World.node[67].nic.mac1609_4 TimesIntoBackoff 295
scalar World.node[67].nic.mac1609_4 SlotsBackoff 2006
scalar World.node[67].nic.mac1609_4 NumInternalContention 0
scalar World.node[67].nic.mac1609_4 totalBusyTime 0.532381170705
scalar World.node[62].appl.middleware.CaService #cam_sent 637
scalar World.node[62].appl.middleware.ExampleService #full_proofs 0
scalar World.node[62].appl.middleware.ExampleService #half_proofs 3
scalar World.node[62].appl.middleware.ExampleService #failed_proofs 0
scalar World.node[62].appl.middleware.ExampleService #loc_proof_send 33
scalar World.node[62].nic.phy80211p busyTime 0.0040073461538461
scalar World.node[62].nic.mac1609_4 ReceivedUnicastPackets 0
scalar World.node[62].nic.mac1609_4 ReceivedBroadcasts 4667
scalar World.node[62].nic.mac1609_4 SentPackets 670
scalar World.node[62].nic.mac1609_4 SentAcknowledgements 0
scalar World.node[62].nic.mac1609_4 SNIRLostPackets 503
scalar World.node[62].nic.mac1609_4 RXTXLostPackets 68
scalar World.node[62].nic.mac1609_4 TotalLostPackets 571
scalar World.node[62].nic.mac1609_4 DroppedPacketsInMac 0
scalar World.node[62].nic.mac1609_4 TooLittleTime 0
scalar World.node[62].nic.mac1609_4 TimesIntoBackoff 675
scalar World.node[62].nic.mac1609_4 SlotsBackoff 5080
scalar World.node[62].nic.mac1609_4 NumInternalContention 0
scalar World.node[62].nic.mac1609_4 totalBusyTime 0.934158248811
scalar World.node[75].appl.middleware.CaService #cam_sent 158
scalar World.node[75].appl.middleware.ExampleService #full_proofs 0
scalar World.node[75].appl.middleware.ExampleService #half_proofs 1
scalar World.node[75].appl.middleware.ExampleService #failed_proofs 0
scalar World.node[75].appl.middleware.ExampleService #loc_proof_send 6
scalar World.node[75].nic.phy80211p busyTime 0.0048628085106382
scalar World.node[75].nic.mac1609_4 ReceivedUnicastPackets 0
scalar World.node[75].nic.mac1609_4 ReceivedBroadcasts 1091
scalar World.node[75].nic.mac1609_4 SentPackets 164
scalar World.node[75].nic.mac1609_4 SentAcknowledgements 0
scalar World.node[75].nic.mac1609_4 SNIRLostPackets 328
scalar World.node[75].nic.mac1609_4 RXTXLostPackets 29
scalar World.node[75].nic.mac1609_4 TotalLostPackets 357
scalar World.node[75].nic.mac1609_4 DroppedPacketsInMac 0
scalar World.node[75].nic.mac1609_4 TooLittleTime 0
scalar World.node[75].nic.mac1609_4 TimesIntoBackoff 165
scalar World.node[75].nic.mac1609_4 SlotsBackoff 1278
scalar World.node[75].nic.mac1609_4 NumInternalContention 0
scalar World.node[75].nic.mac1609_4 totalBusyTime 0.2533
scalar World.node[63].appl.middleware.CaService #cam_sent 523
scalar World.node[63].appl.middleware.ExampleService #full_proofs 0
scalar World.node[63].appl.middleware.ExampleService #half_proofs 4
scalar World.node[63].appl.middleware.ExampleService #failed_proofs 0
scalar World.node[63].appl.middleware.ExampleService #loc_proof_send 34
scalar World.node[63].nic.phy80211p busyTime 0.004252019138756
scalar World.node[63].nic.mac1609_4 ReceivedUnicastPackets 0
scalar World.node[63].nic.mac1609_4 ReceivedBroadcasts 5017
scalar World.node[63].nic.mac1609_4 SentPackets 557
scalar World.node[63].nic.mac1609_4 SentAcknowledgements 0
scalar World.node[63].nic.mac1609_4 SNIRLostPackets 496
scalar World.node[63].nic.mac1609_4 RXTXLostPackets 71
scalar World.node[63].nic.mac1609_4 TotalLostPackets 567
[...]
scalar World.node[222].nic.mac1609_4 SlotsBackoff 4341
scalar World.node[222].nic.mac1609_4 NumInternalContention 0
scalar World.node[222].nic.mac1609_4 totalBusyTime 0.913457
scalar World.node[224].appl.middleware.CaService #cam_sent 469
scalar World.node[224].appl.middleware.ExampleService #full_proofs 0
scalar World.node[224].appl.middleware.ExampleService #half_proofs 2
scalar World.node[224].appl.middleware.ExampleService #failed_proofs 0
scalar World.node[224].appl.middleware.ExampleService #loc_proof_send 23
scalar World.node[224].nic.phy80211p busyTime 0.0044795949367088
scalar World.node[224].nic.mac1609_4 ReceivedUnicastPackets 0
scalar World.node[224].nic.mac1609_4 ReceivedBroadcasts 3756
scalar World.node[224].nic.mac1609_4 SentPackets 492
scalar World.node[224].nic.mac1609_4 SentAcknowledgements 0
scalar World.node[224].nic.mac1609_4 SNIRLostPackets 633
scalar World.node[224].nic.mac1609_4 RXTXLostPackets 64
scalar World.node[224].nic.mac1609_4 TotalLostPackets 697
scalar World.node[224].nic.mac1609_4 DroppedPacketsInMac 0
scalar World.node[224].nic.mac1609_4 TooLittleTime 0
scalar World.node[224].nic.mac1609_4 TimesIntoBackoff 493
scalar World.node[224].nic.mac1609_4 SlotsBackoff 3797
scalar World.node[224].nic.mac1609_4 NumInternalContention 0
scalar World.node[224].nic.mac1609_4 totalBusyTime 0.778444140684
scalar World.node[232].appl.middleware.CaService #cam_sent 138
scalar World.node[232].appl.middleware.ExampleService #full_proofs 0
scalar World.node[232].appl.middleware.ExampleService #half_proofs 1
scalar World.node[232].appl.middleware.ExampleService #failed_proofs 0
scalar World.node[232].appl.middleware.ExampleService #loc_proof_send 4
scalar World.node[232].nic.phy80211p busyTime 0.005086243902439
scalar World.node[232].nic.mac1609_4 ReceivedUnicastPackets 0
scalar World.node[232].nic.mac1609_4 ReceivedBroadcasts 828
scalar World.node[232].nic.mac1609_4 SentPackets 142
scalar World.node[232].nic.mac1609_4 SentAcknowledgements 0
scalar World.node[232].nic.mac1609_4 SNIRLostPackets 469
scalar World.node[232].nic.mac1609_4 RXTXLostPackets 3
scalar World.node[232].nic.mac1609_4 TotalLostPackets 472
scalar World.node[232].nic.mac1609_4 DroppedPacketsInMac 0
scalar World.node[232].nic.mac1609_4 TooLittleTime 0
scalar World.node[232].nic.mac1609_4 TimesIntoBackoff 142
scalar World.node[232].nic.mac1609_4 SlotsBackoff 993
scalar World.node[232].nic.mac1609_4 NumInternalContention 0
scalar World.node[232].nic.mac1609_4 totalBusyTime 0.228542
scalar World.node[230].appl.middleware.CaService #cam_sent 278
scalar World.node[230].appl.middleware.ExampleService #full_proofs 0
scalar World.node[230].appl.middleware.ExampleService #half_proofs 2
scalar World.node[230].appl.middleware.ExampleService #failed_proofs 0
scalar World.node[230].appl.middleware.ExampleService #loc_proof_send 14
scalar World.node[230].nic.phy80211p busyTime 0.0049265542168674
scalar World.node[230].nic.mac1609_4 ReceivedUnicastPackets 0
scalar World.node[230].nic.mac1609_4 ReceivedBroadcasts 2200
scalar World.node[230].nic.mac1609_4 SentPackets 292
scalar World.node[230].nic.mac1609_4 SentAcknowledgements 0
scalar World.node[230].nic.mac1609_4 SNIRLostPackets 332
scalar World.node[230].nic.mac1609_4 RXTXLostPackets 43
scalar World.node[230].nic.mac1609_4 TotalLostPackets 375
scalar World.node[230].nic.mac1609_4 DroppedPacketsInMac 0
scalar World.node[230].nic.mac1609_4 TooLittleTime 0
scalar World.node[230].nic.mac1609_4 TimesIntoBackoff 295
scalar World.node[230].nic.mac1609_4 SlotsBackoff 2183
scalar World.node[230].nic.mac1609_4 NumInternalContention 0
scalar World.node[230].nic.mac1609_4 totalBusyTime 0.452468105016
scalar World.node[227].appl.middleware.CaService #cam_sent 371
scalar World.node[227].appl.middleware.ExampleService #full_proofs 0
scalar World.node[227].appl.middleware.ExampleService #half_proofs 2
scalar World.node[227].appl.middleware.ExampleService #failed_proofs 1
scalar World.node[227].appl.middleware.ExampleService #loc_proof_send 23
scalar World.node[227].nic.phy80211p busyTime 0.0047415522388059
scalar World.node[227].nic.mac1609_4 ReceivedUnicastPackets 0
scalar World.node[227].nic.mac1609_4 ReceivedBroadcasts 3482
scalar World.node[227].nic.mac1609_4 SentPackets 394
scalar World.node[227].nic.mac1609_4 SentAcknowledgements 0
scalar World.node[227].nic.mac1609_4 SNIRLostPackets 455
scalar World.node[227].nic.mac1609_4 RXTXLostPackets 63
scalar World.node[227].nic.mac1609_4 TotalLostPackets 518
scalar World.node[227].nic.mac1609_4 DroppedPacketsInMac 0
scalar World.node[227].nic.mac1609_4 TooLittleTime 0
scalar World.node[227].nic.mac1609_4 TimesIntoBackoff 398
scalar World.node[227].nic.mac1609_4 SlotsBackoff 2923
scalar World.node[227].nic.mac1609_4 NumInternalContention 0
scalar World.node[227].nic.mac1609_4 totalBusyTime 0.692738073408
scalar World.node[226].appl.middleware.CaService #cam_sent 384
scalar World.node[226].appl.middleware.ExampleService #full_proofs 0
scalar World.node[226].appl.middleware.ExampleService #half_proofs 2
scalar World.node[226].appl.middleware.ExampleService #failed_proofs 0
scalar World.node[226].appl.middleware.ExampleService #loc_proof_send 20
scalar World.node[226].nic.phy80211p busyTime 0.0046301333333333
scalar World.node[226].nic.mac1609_4 ReceivedUnicastPackets 0
scalar World.node[226].nic.mac1609_4 ReceivedBroadcasts 3205
scalar World.node[226].nic.mac1609_4 SentPackets 404
scalar World.node[226].nic.mac1609_4 SentAcknowledgements 0
scalar World.node[226].nic.mac1609_4 SNIRLostPackets 1098
scalar World.node[226].nic.mac1609_4 RXTXLostPackets 79
scalar World.node[226].nic.mac1609_4 TotalLostPackets 1177
scalar World.node[226].nic.mac1609_4 DroppedPacketsInMac 0
scalar World.node[226].nic.mac1609_4 TooLittleTime 0
scalar World.node[226].nic.mac1609_4 TimesIntoBackoff 409
scalar World.node[226].nic.mac1609_4 SlotsBackoff 3068
scalar World.node[226].nic.mac1609_4 NumInternalContention 0
scalar World.node[226].nic.mac1609_4 totalBusyTime 0.753212001808
scalar World.node[228].appl.middleware.CaService #cam_sent 336
scalar World.node[228].appl.middleware.ExampleService #full_proofs 0
scalar World.node[228].appl.middleware.ExampleService #half_proofs 2
scalar World.node[228].appl.middleware.ExampleService #failed_proofs 0
scalar World.node[228].appl.middleware.ExampleService #loc_proof_send 17
scalar World.node[228].nic.phy80211p busyTime 0.0045815483870967
scalar World.node[228].nic.mac1609_4 ReceivedUnicastPackets 0
scalar World.node[228].nic.mac1609_4 ReceivedBroadcasts 2518
scalar World.node[228].nic.mac1609_4 SentPackets 353
scalar World.node[228].nic.mac1609_4 SentAcknowledgements 0
scalar World.node[228].nic.mac1609_4 SNIRLostPackets 999
scalar World.node[228].nic.mac1609_4 RXTXLostPackets 72
scalar World.node[228].nic.mac1609_4 TotalLostPackets 1071
scalar World.node[228].nic.mac1609_4 DroppedPacketsInMac 0
scalar World.node[228].nic.mac1609_4 TooLittleTime 0
scalar World.node[228].nic.mac1609_4 TimesIntoBackoff 356
scalar World.node[228].nic.mac1609_4 SlotsBackoff 2973
scalar World.node[228].nic.mac1609_4 NumInternalContention 0
scalar World.node[228].nic.mac1609_4 totalBusyTime 0.621129
scalar World.node[225].appl.middleware.CaService #cam_sent 472
scalar World.node[225].appl.middleware.ExampleService #full_proofs 0
scalar World.node[225].appl.middleware.ExampleService #half_proofs 3
scalar World.node[225].appl.middleware.ExampleService #failed_proofs 0
scalar World.node[225].appl.middleware.ExampleService #loc_proof_send 29
scalar World.node[225].nic.phy80211p busyTime 0.0043730337078652
scalar World.node[225].nic.mac1609_4 ReceivedUnicastPackets 0
scalar World.node[225].nic.mac1609_4 ReceivedBroadcasts 4473
scalar World.node[225].nic.mac1609_4 SentPackets 501
scalar World.node[225].nic.mac1609_4 SentAcknowledgements 0
scalar World.node[225].nic.mac1609_4 SNIRLostPackets 346
scalar World.node[225].nic.mac1609_4 RXTXLostPackets 81
scalar World.node[225].nic.mac1609_4 TotalLostPackets 427
scalar World.node[225].nic.mac1609_4 DroppedPacketsInMac 0
scalar World.node[225].nic.mac1609_4 TooLittleTime 0
scalar World.node[225].nic.mac1609_4 TimesIntoBackoff 504
scalar World.node[225].nic.mac1609_4 SlotsBackoff 3906
scalar World.node[225].nic.mac1609_4 NumInternalContention 0
scalar World.node[225].nic.mac1609_4 totalBusyTime 0.851461103426
scalar World.node[234].appl.middleware.CaService #cam_sent 296
scalar World.node[234].appl.middleware.ExampleService #full_proofs 0
scalar World.node[234].appl.middleware.ExampleService #half_proofs 1
scalar World.node[234].appl.middleware.ExampleService #failed_proofs 0
scalar World.node[234].appl.middleware.ExampleService #loc_proof_send 11
scalar World.node[234].nic.phy80211p busyTime 0.0034911340206185
scalar World.node[234].nic.mac1609_4 ReceivedUnicastPackets 0
scalar World.node[234].nic.mac1609_4 ReceivedBroadcasts 1733
scalar World.node[234].nic.mac1609_4 SentPackets 307
scalar World.node[234].nic.mac1609_4 SentAcknowledgements 0
scalar World.node[234].nic.mac1609_4 SNIRLostPackets 362
scalar World.node[234].nic.mac1609_4 RXTXLostPackets 21
scalar World.node[234].nic.mac1609_4 TotalLostPackets 383
scalar World.node[234].nic.mac1609_4 DroppedPacketsInMac 0
scalar World.node[234].nic.mac1609_4 TooLittleTime 0
scalar World.node[234].nic.mac1609_4 TimesIntoBackoff 308
scalar World.node[234].nic.mac1609_4 SlotsBackoff 2514
scalar World.node[234].nic.mac1609_4 NumInternalContention 0
scalar World.node[234].nic.mac1609_4 totalBusyTime 0.386347
scalar World.node[237].appl.middleware.CaService #cam_sent 144
scalar World.node[237].appl.middleware.ExampleService #full_proofs 0
scalar World.node[237].appl.middleware.ExampleService #half_proofs 0
scalar World.node[237].appl.middleware.ExampleService #failed_proofs 0
scalar World.node[237].appl.middleware.ExampleService #loc_proof_send 3
scalar World.node[237].nic.phy80211p busyTime 0.0032321860465116
scalar World.node[237].nic.mac1609_4 ReceivedUnicastPackets 0
scalar World.node[237].nic.mac1609_4 ReceivedBroadcasts 462
scalar World.node[237].nic.mac1609_4 SentPackets 147
scalar World.node[237].nic.mac1609_4 SentAcknowledgements 0
scalar World.node[237].nic.mac1609_4 SNIRLostPackets 399
scalar World.node[237].nic.mac1609_4 RXTXLostPackets 2
scalar World.node[237].nic.mac1609_4 TotalLostPackets 401
scalar World.node[237].nic.mac1609_4 DroppedPacketsInMac 0
scalar World.node[237].nic.mac1609_4 TooLittleTime 0
scalar World.node[237].nic.mac1609_4 TimesIntoBackoff 148
scalar World.node[237].nic.mac1609_4 SlotsBackoff 1121
scalar World.node[237].nic.mac1609_4 NumInternalContention 0
scalar World.node[237].nic.mac1609_4 totalBusyTime 0.161715
scalar World.node[231].appl.middleware.CaService #cam_sent 388
scalar World.node[231].appl.middleware.ExampleService #full_proofs 0
scalar World.node[231].appl.middleware.ExampleService #half_proofs 2
scalar World.node[231].appl.middleware.ExampleService #failed_proofs 0
scalar World.node[231].appl.middleware.ExampleService #loc_proof_send 20
scalar World.node[231].nic.phy80211p busyTime 0.003793610738255
scalar World.node[231].nic.mac1609_4 ReceivedUnicastPackets 0
scalar World.node[231].nic.mac1609_4 ReceivedBroadcasts 3342
scalar World.node[231].nic.mac1609_4 SentPackets 408
scalar World.node[231].nic.mac1609_4 SentAcknowledgements 0
scalar World.node[231].nic.mac1609_4 SNIRLostPackets 152
scalar World.node[231].nic.mac1609_4 RXTXLostPackets 52
scalar World.node[231].nic.mac1609_4 TotalLostPackets 204
scalar World.node[231].nic.mac1609_4 DroppedPacketsInMac 0
scalar World.node[231].nic.mac1609_4 TooLittleTime 0
scalar World.node[231].nic.mac1609_4 TimesIntoBackoff 412
scalar World.node[231].nic.mac1609_4 SlotsBackoff 3002
scalar World.node[231].nic.mac1609_4 NumInternalContention 0
scalar World.node[231].nic.mac1609_4 totalBusyTime 0.62792
scalar World.node[235].appl.middleware.CaService #cam_sent 377
scalar World.node[235].appl.middleware.ExampleService #full_proofs 0
scalar World.node[235].appl.middleware.ExampleService #half_proofs 2
scalar World.node[235].appl.middleware.ExampleService #failed_proofs 0
scalar World.node[235].appl.middleware.ExampleService #loc_proof_send 15
scalar World.node[235].nic.phy80211p busyTime 0.0031478319327731
scalar World.node[235].nic.mac1609_4 ReceivedUnicastPackets 0
scalar World.node[235].nic.mac1609_4 ReceivedBroadcasts 2232
scalar World.node[235].nic.mac1609_4 SentPackets 392
scalar World.node[235].nic.mac1609_4 SentAcknowledgements 0
scalar World.node[235].nic.mac1609_4 SNIRLostPackets 86
scalar World.node[235].nic.mac1609_4 RXTXLostPackets 22
scalar World.node[235].nic.mac1609_4 TotalLostPackets 108
scalar World.node[235].nic.mac1609_4 DroppedPacketsInMac 0
scalar World.node[235].nic.mac1609_4 TooLittleTime 0
scalar World.node[235].nic.mac1609_4 TimesIntoBackoff 393
scalar World.node[235].nic.mac1609_4 SlotsBackoff 3055
scalar World.node[235].nic.mac1609_4 NumInternalContention 0
scalar World.node[235].nic.mac1609_4 totalBusyTime 0.435224
scalar World.node[229].appl.middleware.CaService #cam_sent 604
scalar World.node[229].appl.middleware.ExampleService #full_proofs 0
scalar World.node[229].appl.middleware.ExampleService #half_proofs 2
scalar World.node[229].appl.middleware.ExampleService #failed_proofs 1
scalar World.node[229].appl.middleware.ExampleService #loc_proof_send 29
scalar World.node[229].nic.phy80211p busyTime 0.0038665365853658
scalar World.node[229].nic.mac1609_4 ReceivedUnicastPackets 0
scalar World.node[229].nic.mac1609_4 ReceivedBroadcasts 4592
scalar World.node[229].nic.mac1609_4 SentPackets 633
scalar World.node[229].nic.mac1609_4 SentAcknowledgements 0
scalar World.node[229].nic.mac1609_4 SNIRLostPackets 316
scalar World.node[229].nic.mac1609_4 RXTXLostPackets 67
scalar World.node[229].nic.mac1609_4 TotalLostPackets 383
scalar World.node[229].nic.mac1609_4 DroppedPacketsInMac 0
scalar World.node[229].nic.mac1609_4 TooLittleTime 0
scalar World.node[229].nic.mac1609_4 TimesIntoBackoff 634
scalar World.node[229].nic.mac1609_4 SlotsBackoff 4860
scalar World.node[229].nic.mac1609_4 NumInternalContention 0
scalar World.node[229].nic.mac1609_4 totalBusyTime 0.888401096682
scalar World.node[238].appl.middleware.CaService #cam_sent 409
scalar World.node[238].appl.middleware.ExampleService #full_proofs 0
scalar World.node[238].appl.middleware.ExampleService #half_proofs 2
scalar World.node[238].appl.middleware.ExampleService #failed_proofs 0
scalar World.node[238].appl.middleware.ExampleService #loc_proof_send 14
scalar World.node[238].nic.phy80211p busyTime 0.0020294246575342
scalar World.node[238].nic.mac1609_4 ReceivedUnicastPackets 0
scalar World.node[238].nic.mac1609_4 ReceivedBroadcasts 1695
scalar World.node[238].nic.mac1609_4 SentPackets 423
scalar World.node[238].nic.mac1609_4 SentAcknowledgements 0
scalar World.node[238].nic.mac1609_4 SNIRLostPackets 130
scalar World.node[238].nic.mac1609_4 RXTXLostPackets 23
scalar World.node[238].nic.mac1609_4 TotalLostPackets 153
scalar World.node[238].nic.mac1609_4 DroppedPacketsInMac 0
scalar World.node[238].nic.mac1609_4 TooLittleTime 0
scalar World.node[238].nic.mac1609_4 TimesIntoBackoff 423
scalar World.node[238].nic.mac1609_4 SlotsBackoff 3156
scalar World.node[238].nic.mac1609_4 NumInternalContention 0
scalar World.node[238].nic.mac1609_4 totalBusyTime 0.363351
scalar World.node[233].appl.middleware.CaService #cam_sent 617
scalar World.node[233].appl.middleware.ExampleService #full_proofs 2
scalar World.node[233].appl.middleware.ExampleService #half_proofs 2
scalar World.node[233].appl.middleware.ExampleService #failed_proofs 0
scalar World.node[233].appl.middleware.ExampleService #loc_proof_send 24
scalar World.node[233].nic.phy80211p busyTime 0.0026829957446808
scalar World.node[233].nic.mac1609_4 ReceivedUnicastPackets 0
scalar World.node[233].nic.mac1609_4 ReceivedBroadcasts 3472
scalar World.node[233].nic.mac1609_4 SentPackets 641
scalar World.node[233].nic.mac1609_4 SentAcknowledgements 0
scalar World.node[233].nic.mac1609_4 SNIRLostPackets 420
scalar World.node[233].nic.mac1609_4 RXTXLostPackets 50
scalar World.node[233].nic.mac1609_4 TotalLostPackets 470
scalar World.node[233].nic.mac1609_4 DroppedPacketsInMac 0
scalar World.node[233].nic.mac1609_4 TooLittleTime 0
scalar World.node[233].nic.mac1609_4 TimesIntoBackoff 644
scalar World.node[233].nic.mac1609_4 SlotsBackoff 4700
scalar World.node[233].nic.mac1609_4 NumInternalContention 0
scalar World.node[233].nic.mac1609_4 totalBusyTime 0.732033345701
scalar World.node[236].appl.middleware.CaService #cam_sent 404
scalar World.node[236].appl.middleware.ExampleService #full_proofs 0
scalar World.node[236].appl.middleware.ExampleService #half_proofs 1
scalar World.node[236].appl.middleware.ExampleService #failed_proofs 2
scalar World.node[236].appl.middleware.ExampleService #loc_proof_send 15
scalar World.node[236].nic.phy80211p busyTime 0.0021818222222222
scalar World.node[236].nic.mac1609_4 ReceivedUnicastPackets 0
scalar World.node[236].nic.mac1609_4 ReceivedBroadcasts 2298
scalar World.node[236].nic.mac1609_4 SentPackets 419
scalar World.node[236].nic.mac1609_4 SentAcknowledgements 0
scalar World.node[236].nic.mac1609_4 SNIRLostPackets 119
scalar World.node[236].nic.mac1609_4 RXTXLostPackets 27
scalar World.node[236].nic.mac1609_4 TotalLostPackets 146
scalar World.node[236].nic.mac1609_4 DroppedPacketsInMac 0
scalar World.node[236].nic.mac1609_4 TooLittleTime 0
scalar World.node[236].nic.mac1609_4 TimesIntoBackoff 419
scalar World.node[236].nic.mac1609_4 SlotsBackoff 3205
scalar World.node[236].nic.mac1609_4 NumInternalContention 0
scalar World.node[236].nic.mac1609_4 totalBusyTime 0.459771
scalar World.node[239].appl.middleware.CaService #cam_sent 412
scalar World.node[239].appl.middleware.ExampleService #full_proofs 1
scalar World.node[239].appl.middleware.ExampleService #half_proofs 2
scalar World.node[239].appl.middleware.ExampleService #failed_proofs 0
scalar World.node[239].appl.middleware.ExampleService #loc_proof_send 12
scalar World.node[239].nic.phy80211p busyTime 0.001552
scalar World.node[239].nic.mac1609_4 ReceivedUnicastPackets 0
scalar World.node[239].nic.mac1609_4 ReceivedBroadcasts 1521
scalar World.node[239].nic.mac1609_4 SentPackets 424
scalar World.node[239].nic.mac1609_4 SentAcknowledgements 0
scalar World.node[239].nic.mac1609_4 SNIRLostPackets 121
scalar World.node[239].nic.mac1609_4 RXTXLostPackets 20
scalar World.node[239].nic.mac1609_4 TotalLostPackets 141
scalar World.node[239].nic.mac1609_4 DroppedPacketsInMac 0
scalar World.node[239].nic.mac1609_4 TooLittleTime 0
scalar World.node[239].nic.mac1609_4 TimesIntoBackoff 426
scalar World.node[239].nic.mac1609_4 SlotsBackoff 3204
scalar World.node[239].nic.mac1609_4 NumInternalContention 0
scalar World.node[239].nic.mac1609_4 totalBusyTime 0.335352118889
scalar World.node[240].appl.middleware.CaService #cam_sent 436
scalar World.node[240].appl.middleware.ExampleService #full_proofs 1
scalar World.node[240].appl.middleware.ExampleService #half_proofs 0
scalar World.node[240].appl.middleware.ExampleService #failed_proofs 1
scalar World.node[240].appl.middleware.ExampleService #loc_proof_send 10
scalar World.node[240].nic.phy80211p busyTime 0.0013168383233533
scalar World.node[240].nic.mac1609_4 ReceivedUnicastPackets 0
scalar World.node[240].nic.mac1609_4 ReceivedBroadcasts 1264
scalar World.node[240].nic.mac1609_4 SentPackets 446
scalar World.node[240].nic.mac1609_4 SentAcknowledgements 0
scalar World.node[240].nic.mac1609_4 SNIRLostPackets 85
scalar World.node[240].nic.mac1609_4 RXTXLostPackets 20
scalar World.node[240].nic.mac1609_4 TotalLostPackets 105
scalar World.node[240].nic.mac1609_4 DroppedPacketsInMac 0
scalar World.node[240].nic.mac1609_4 TooLittleTime 0
scalar World.node[240].nic.mac1609_4 TimesIntoBackoff 446
scalar World.node[240].nic.mac1609_4 SlotsBackoff 3505
scalar World.node[240].nic.mac1609_4 NumInternalContention 0
scalar World.node[240].nic.mac1609_4 totalBusyTime 0.292494

