version 2
run No_Obstacles-1-20191117-11:36:47-6118
attr configname No_Obstacles
attr datetime 20191117-11:36:47
attr experiment No_Obstacles
attr inifile omnetpp.ini
attr iterationvars $0=40
attr iterationvarsf 40-
attr measurement $0=40
attr network artery.veins.World
attr processid 6118
attr repetition 0
attr replication #0
attr resultdir results
attr runnumber 1
attr seedset 1
param *.traci.launcher.sumocfg "\"No_Obstacles/run.sumo.cfg\""
param *.node[*].nic.mac1609_4.txPower 20mW
param *.node[*].nic.phy80211p.decider "xmldoc(\"config.xml\")"
param *.node[*].nic.phy80211p.analogueModels "xmldoc(\"config.xml\")"
param *.node[*].applType "\"artery.veins.ApplicationLayer\""
param *.node[*].appl.middleware.updateInterval 0.1s
param *.node[*].appl.middleware.datetime "\"2013-06-01 12:35:00\""
param *.node[*].appl.middleware.services "xmldoc(\"services.xml\")"
param *.node[*].appl.middleware.ExampleService.DecisionLogic 40
param *.node[*].appl.middleware.ExampleService.NeighboringWindow 60
param *.traci.core.version -1
param *.traci.launcher.typename "\"PosixLauncher\""
param *.playgroundSizeX 4000m
param *.playgroundSizeY 4000m
param *.playgroundSizeZ 50m
param *.connectionManager.maxInterfDist 1500m
param *.connectionManager.sendDirect true
param *.connectionManager.coreDebug false

scalar World.node[2].appl.middleware.CaService #cam_sent 56
scalar World.node[2].appl.middleware.ExampleService #full_proofs 0
scalar World.node[2].appl.middleware.ExampleService #half_proofs 0
scalar World.node[2].appl.middleware.ExampleService #failed_proofs 0
scalar World.node[2].appl.middleware.ExampleService #loc_proof_send 0
scalar World.node[2].nic.phy80211p busyTime 0.0018897777777778
scalar World.node[2].nic.mac1609_4 ReceivedUnicastPackets 0
scalar World.node[2].nic.mac1609_4 ReceivedBroadcasts 53
scalar World.node[2].nic.mac1609_4 SentPackets 56
scalar World.node[2].nic.mac1609_4 SentAcknowledgements 0
scalar World.node[2].nic.mac1609_4 SNIRLostPackets 157
scalar World.node[2].nic.mac1609_4 RXTXLostPackets 0
scalar World.node[2].nic.mac1609_4 TotalLostPackets 157
scalar World.node[2].nic.mac1609_4 DroppedPacketsInMac 0
scalar World.node[2].nic.mac1609_4 TooLittleTime 0
scalar World.node[2].nic.mac1609_4 TimesIntoBackoff 56
scalar World.node[2].nic.mac1609_4 SlotsBackoff 392
scalar World.node[2].nic.mac1609_4 NumInternalContention 0
scalar World.node[2].nic.mac1609_4 totalBusyTime 0.043224
scalar World.node[3].appl.middleware.CaService #cam_sent 94
scalar World.node[3].appl.middleware.ExampleService #full_proofs 1
scalar World.node[3].appl.middleware.ExampleService #half_proofs 0
scalar World.node[3].appl.middleware.ExampleService #failed_proofs 0
scalar World.node[3].appl.middleware.ExampleService #loc_proof_send 3
scalar World.node[3].nic.phy80211p busyTime 0.0030005714285714
scalar World.node[3].nic.mac1609_4 ReceivedUnicastPackets 0
scalar World.node[3].nic.mac1609_4 ReceivedBroadcasts 475
scalar World.node[3].nic.mac1609_4 SentPackets 97
scalar World.node[3].nic.mac1609_4 SentAcknowledgements 0
scalar World.node[3].nic.mac1609_4 SNIRLostPackets 43
scalar World.node[3].nic.mac1609_4 RXTXLostPackets 6
scalar World.node[3].nic.mac1609_4 TotalLostPackets 49
scalar World.node[3].nic.mac1609_4 DroppedPacketsInMac 0
scalar World.node[3].nic.mac1609_4 TooLittleTime 0
scalar World.node[3].nic.mac1609_4 TimesIntoBackoff 98
scalar World.node[3].nic.mac1609_4 SlotsBackoff 658
scalar World.node[3].nic.mac1609_4 NumInternalContention 0
scalar World.node[3].nic.mac1609_4 totalBusyTime 0.099505006702
scalar World.node[9].appl.middleware.CaService #cam_sent 104
scalar World.node[9].appl.middleware.ExampleService #full_proofs 0
scalar World.node[9].appl.middleware.ExampleService #half_proofs 1
scalar World.node[9].appl.middleware.ExampleService #failed_proofs 0
scalar World.node[9].appl.middleware.ExampleService #loc_proof_send 7
scalar World.node[9].nic.phy80211p busyTime 0.0057468387096774
scalar World.node[9].nic.mac1609_4 ReceivedUnicastPackets 0
scalar World.node[9].nic.mac1609_4 ReceivedBroadcasts 992
scalar World.node[9].nic.mac1609_4 SentPackets 111
scalar World.node[9].nic.mac1609_4 SentAcknowledgements 0
scalar World.node[9].nic.mac1609_4 SNIRLostPackets 119
scalar World.node[9].nic.mac1609_4 RXTXLostPackets 14
scalar World.node[9].nic.mac1609_4 TotalLostPackets 133
scalar World.node[9].nic.mac1609_4 DroppedPacketsInMac 0
scalar World.node[9].nic.mac1609_4 TooLittleTime 0
scalar World.node[9].nic.mac1609_4 TimesIntoBackoff 112
scalar World.node[9].nic.mac1609_4 SlotsBackoff 842
scalar World.node[9].nic.mac1609_4 NumInternalContention 0
scalar World.node[9].nic.mac1609_4 totalBusyTime 0.192031
scalar World.node[21].appl.middleware.CaService #cam_sent 34
scalar World.node[21].appl.middleware.ExampleService #full_proofs 0
scalar World.node[21].appl.middleware.ExampleService #half_proofs 0
scalar World.node[21].appl.middleware.ExampleService #failed_proofs 0
scalar World.node[21].appl.middleware.ExampleService #loc_proof_send 6
scalar World.node[21].nic.phy80211p busyTime 0.0087664
scalar World.node[21].nic.mac1609_4 ReceivedUnicastPackets 0
scalar World.node[21].nic.mac1609_4 ReceivedBroadcasts 521
scalar World.node[21].nic.mac1609_4 SentPackets 40
scalar World.node[21].nic.mac1609_4 SentAcknowledgements 0
scalar World.node[21].nic.mac1609_4 SNIRLostPackets 41
scalar World.node[21].nic.mac1609_4 RXTXLostPackets 27
scalar World.node[21].nic.mac1609_4 TotalLostPackets 68
scalar World.node[21].nic.mac1609_4 DroppedPacketsInMac 0
scalar World.node[21].nic.mac1609_4 TooLittleTime 0
scalar World.node[21].nic.mac1609_4 TimesIntoBackoff 42
scalar World.node[21].nic.mac1609_4 SlotsBackoff 271
scalar World.node[21].nic.mac1609_4 NumInternalContention 0
scalar World.node[21].nic.mac1609_4 totalBusyTime 0.089584062521
scalar World.node[0].appl.middleware.CaService #cam_sent 208
scalar World.node[0].appl.middleware.ExampleService #full_proofs 0
scalar World.node[0].appl.middleware.ExampleService #half_proofs 1
scalar World.node[0].appl.middleware.ExampleService #failed_proofs 0
scalar World.node[0].appl.middleware.ExampleService #loc_proof_send 20
scalar World.node[0].nic.phy80211p busyTime 0.0057670943396226
scalar World.node[0].nic.mac1609_4 ReceivedUnicastPackets 0
scalar World.node[0].nic.mac1609_4 ReceivedBroadcasts 3603
scalar World.node[0].nic.mac1609_4 SentPackets 228
scalar World.node[0].nic.mac1609_4 SentAcknowledgements 0
scalar World.node[0].nic.mac1609_4 SNIRLostPackets 193
scalar World.node[0].nic.mac1609_4 RXTXLostPackets 124
scalar World.node[0].nic.mac1609_4 TotalLostPackets 317
scalar World.node[0].nic.mac1609_4 DroppedPacketsInMac 0
scalar World.node[0].nic.mac1609_4 TooLittleTime 0
scalar World.node[0].nic.mac1609_4 TimesIntoBackoff 231
scalar World.node[0].nic.mac1609_4 SlotsBackoff 1747
scalar World.node[0].nic.mac1609_4 NumInternalContention 0
scalar World.node[0].nic.mac1609_4 totalBusyTime 0.640988412582
scalar World.node[1].appl.middleware.CaService #cam_sent 274
scalar World.node[1].appl.middleware.ExampleService #full_proofs 0
scalar World.node[1].appl.middleware.ExampleService #half_proofs 2
scalar World.node[1].appl.middleware.ExampleService #failed_proofs 0
scalar World.node[1].appl.middleware.ExampleService #loc_proof_send 21
scalar World.node[1].nic.phy80211p busyTime 0.005956038095238
scalar World.node[1].nic.mac1609_4 ReceivedUnicastPackets 0
scalar World.node[1].nic.mac1609_4 ReceivedBroadcasts 3269
scalar World.node[1].nic.mac1609_4 SentPackets 295
scalar World.node[1].nic.mac1609_4 SentAcknowledgements 0
scalar World.node[1].nic.mac1609_4 SNIRLostPackets 623
scalar World.node[1].nic.mac1609_4 RXTXLostPackets 116
scalar World.node[1].nic.mac1609_4 TotalLostPackets 739
scalar World.node[1].nic.mac1609_4 DroppedPacketsInMac 0
scalar World.node[1].nic.mac1609_4 TooLittleTime 0
scalar World.node[1].nic.mac1609_4 TimesIntoBackoff 301
scalar World.node[1].nic.mac1609_4 SlotsBackoff 2297
scalar World.node[1].nic.mac1609_4 NumInternalContention 0
scalar World.node[1].nic.mac1609_4 totalBusyTime 0.66411917416
scalar World.node[6].appl.middleware.CaService #cam_sent 342
scalar World.node[6].appl.middleware.ExampleService #full_proofs 0
scalar World.node[6].appl.middleware.ExampleService #half_proofs 2
scalar World.node[6].appl.middleware.ExampleService #failed_proofs 0
scalar World.node[6].appl.middleware.ExampleService #loc_proof_send 30
scalar World.node[6].nic.phy80211p busyTime 0.0085353277310924
scalar World.node[6].nic.mac1609_4 ReceivedUnicastPackets 0
scalar World.node[6].nic.mac1609_4 ReceivedBroadcasts 6001
scalar World.node[6].nic.mac1609_4 SentPackets 372
scalar World.node[6].nic.mac1609_4 SentAcknowledgements 0
scalar World.node[6].nic.mac1609_4 SNIRLostPackets 344
scalar World.node[6].nic.mac1609_4 RXTXLostPackets 184
scalar World.node[6].nic.mac1609_4 TotalLostPackets 528
scalar World.node[6].nic.mac1609_4 DroppedPacketsInMac 0
scalar World.node[6].nic.mac1609_4 TooLittleTime 0
scalar World.node[6].nic.mac1609_4 TimesIntoBackoff 379
scalar World.node[6].nic.mac1609_4 SlotsBackoff 2829
scalar World.node[6].nic.mac1609_4 NumInternalContention 0
scalar World.node[6].nic.mac1609_4 totalBusyTime 1.054052
scalar World.node[19].appl.middleware.CaService #cam_sent 210
scalar World.node[19].appl.middleware.ExampleService #full_proofs 0
scalar World.node[19].appl.middleware.ExampleService #half_proofs 1
scalar World.node[19].appl.middleware.ExampleService #failed_proofs 0
scalar World.node[19].appl.middleware.ExampleService #loc_proof_send 24
scalar World.node[19].nic.phy80211p busyTime 0.010760421052632
scalar World.node[19].nic.mac1609_4 ReceivedUnicastPackets 0
scalar World.node[19].nic.mac1609_4 ReceivedBroadcasts 4535
scalar World.node[19].nic.mac1609_4 SentPackets 234
scalar World.node[19].nic.mac1609_4 SentAcknowledgements 0
scalar World.node[19].nic.mac1609_4 SNIRLostPackets 579
scalar World.node[19].nic.mac1609_4 RXTXLostPackets 243
scalar World.node[19].nic.mac1609_4 TotalLostPackets 822
scalar World.node[19].nic.mac1609_4 DroppedPacketsInMac 0
scalar World.node[19].nic.mac1609_4 TooLittleTime 0
scalar World.node[19].nic.mac1609_4 TimesIntoBackoff 241
scalar World.node[19].nic.mac1609_4 SlotsBackoff 1714
scalar World.node[19].nic.mac1609_4 NumInternalContention 0
scalar World.node[19].nic.mac1609_4 totalBusyTime 0.837314515871
scalar World.node[22].appl.middleware.CaService #cam_sent 188
scalar World.node[22].appl.middleware.ExampleService #full_proofs 0
scalar World.node[22].appl.middleware.ExampleService #half_proofs 0
scalar World.node[22].appl.middleware.ExampleService #failed_proofs 0
scalar World.node[22].appl.middleware.ExampleService #loc_proof_send 17
scalar World.node[22].nic.phy80211p busyTime 0.011638714285714
scalar World.node[22].nic.mac1609_4 ReceivedUnicastPackets 0
scalar World.node[22].nic.mac1609_4 ReceivedBroadcasts 3500
scalar World.node[22].nic.mac1609_4 SentPackets 205
scalar World.node[22].nic.mac1609_4 SentAcknowledgements 0
scalar World.node[22].nic.mac1609_4 SNIRLostPackets 569
scalar World.node[22].nic.mac1609_4 RXTXLostPackets 191
scalar World.node[22].nic.mac1609_4 TotalLostPackets 760
scalar World.node[22].nic.mac1609_4 DroppedPacketsInMac 0
scalar World.node[22].nic.mac1609_4 TooLittleTime 0
scalar World.node[22].nic.mac1609_4 TimesIntoBackoff 208
scalar World.node[22].nic.mac1609_4 SlotsBackoff 1528
scalar World.node[22].nic.mac1609_4 NumInternalContention 0
scalar World.node[22].nic.mac1609_4 totalBusyTime 0.670389449304
scalar World.node[13].appl.middleware.CaService #cam_sent 337
scalar World.node[13].appl.middleware.ExampleService #full_proofs 0
scalar World.node[13].appl.middleware.ExampleService #half_proofs 2
scalar World.node[13].appl.middleware.ExampleService #failed_proofs 0
scalar World.node[13].appl.middleware.ExampleService #loc_proof_send 34
scalar World.node[13].nic.phy80211p busyTime 0.0099897657657655
scalar World.node[13].nic.mac1609_4 ReceivedUnicastPackets 0
scalar World.node[13].nic.mac1609_4 ReceivedBroadcasts 6428
scalar World.node[13].nic.mac1609_4 SentPackets 371
scalar World.node[13].nic.mac1609_4 SentAcknowledgements 0
scalar World.node[13].nic.mac1609_4 SNIRLostPackets 524
scalar World.node[13].nic.mac1609_4 RXTXLostPackets 278
scalar World.node[13].nic.mac1609_4 TotalLostPackets 802
scalar World.node[13].nic.mac1609_4 DroppedPacketsInMac 0
scalar World.node[13].nic.mac1609_4 TooLittleTime 0
scalar World.node[13].nic.mac1609_4 TimesIntoBackoff 377
scalar World.node[13].nic.mac1609_4 SlotsBackoff 2903
scalar World.node[13].nic.mac1609_4 NumInternalContention 0
scalar World.node[13].nic.mac1609_4 totalBusyTime 1.140659819903
scalar World.node[8].appl.middleware.CaService #cam_sent 352
scalar World.node[8].appl.middleware.ExampleService #full_proofs 0
scalar World.node[8].appl.middleware.ExampleService #half_proofs 2
scalar World.node[8].appl.middleware.ExampleService #failed_proofs 0
scalar World.node[8].appl.middleware.ExampleService #loc_proof_send 39
scalar World.node[8].nic.phy80211p busyTime 0.009696235294117
scalar World.node[8].nic.mac1609_4 ReceivedUnicastPackets 0
scalar World.node[8].nic.mac1609_4 ReceivedBroadcasts 7284
scalar World.node[8].nic.mac1609_4 SentPackets 391
scalar World.node[8].nic.mac1609_4 SentAcknowledgements 0
scalar World.node[8].nic.mac1609_4 SNIRLostPackets 981
scalar World.node[8].nic.mac1609_4 RXTXLostPackets 331
scalar World.node[8].nic.mac1609_4 TotalLostPackets 1312
scalar World.node[8].nic.mac1609_4 DroppedPacketsInMac 0
scalar World.node[8].nic.mac1609_4 TooLittleTime 0
scalar World.node[8].nic.mac1609_4 TimesIntoBackoff 395
scalar World.node[8].nic.mac1609_4 SlotsBackoff 2877
scalar World.node[8].nic.mac1609_4 NumInternalContention 0
scalar World.node[8].nic.mac1609_4 totalBusyTime 1.348463451082
scalar World.node[35].appl.middleware.CaService #cam_sent 144
scalar World.node[35].appl.middleware.ExampleService #full_proofs 0
scalar World.node[35].appl.middleware.ExampleService #half_proofs 0
scalar World.node[35].appl.middleware.ExampleService #failed_proofs 0
scalar World.node[35].appl.middleware.ExampleService #loc_proof_send 26
scalar World.node[35].nic.phy80211p busyTime 0.013600186046511
scalar World.node[35].nic.mac1609_4 ReceivedUnicastPackets 0
scalar World.node[35].nic.mac1609_4 ReceivedBroadcasts 3347
scalar World.node[35].nic.mac1609_4 SentPackets 170
scalar World.node[35].nic.mac1609_4 SentAcknowledgements 0
scalar World.node[35].nic.mac1609_4 SNIRLostPackets 373
scalar World.node[35].nic.mac1609_4 RXTXLostPackets 282
scalar World.node[35].nic.mac1609_4 TotalLostPackets 655
scalar World.node[35].nic.mac1609_4 DroppedPacketsInMac 0
scalar World.node[35].nic.mac1609_4 TooLittleTime 0
scalar World.node[35].nic.mac1609_4 TimesIntoBackoff 179
scalar World.node[35].nic.mac1609_4 SlotsBackoff 1339
scalar World.node[35].nic.mac1609_4 NumInternalContention 0
scalar World.node[35].nic.mac1609_4 totalBusyTime 0.587802535065
scalar World.node[15].appl.middleware.CaService #cam_sent 409
scalar World.node[15].appl.middleware.ExampleService #full_proofs 0
scalar World.node[15].appl.middleware.ExampleService #half_proofs 3
scalar World.node[15].appl.middleware.ExampleService #failed_proofs 0
scalar World.node[15].appl.middleware.ExampleService #loc_proof_send 50
scalar World.node[15].nic.phy80211p busyTime 0.011029850746268
scalar World.node[15].nic.mac1609_4 ReceivedUnicastPackets 0
scalar World.node[15].nic.mac1609_4 ReceivedBroadcasts 8351
scalar World.node[15].nic.mac1609_4 SentPackets 459
scalar World.node[15].nic.mac1609_4 SentAcknowledgements 0
scalar World.node[15].nic.mac1609_4 SNIRLostPackets 983
scalar World.node[15].nic.mac1609_4 RXTXLostPackets 373
scalar World.node[15].nic.mac1609_4 TotalLostPackets 1356
scalar World.node[15].nic.mac1609_4 DroppedPacketsInMac 0
scalar World.node[15].nic.mac1609_4 TooLittleTime 0
scalar World.node[15].nic.mac1609_4 TimesIntoBackoff 471
scalar World.node[15].nic.mac1609_4 SlotsBackoff 3468
scalar World.node[15].nic.mac1609_4 NumInternalContention 0
scalar World.node[15].nic.mac1609_4 totalBusyTime 1.499076525628
scalar World.node[16].appl.middleware.CaService #cam_sent 351
scalar World.node[16].appl.middleware.ExampleService #full_proofs 0
scalar World.node[16].appl.middleware.ExampleService #half_proofs 2
scalar World.node[16].appl.middleware.ExampleService #failed_proofs 0
scalar World.node[16].appl.middleware.ExampleService #loc_proof_send 37
scalar World.node[16].nic.phy80211p busyTime 0.011312244274808
scalar World.node[16].nic.mac1609_4 ReceivedUnicastPackets 0
scalar World.node[16].nic.mac1609_4 ReceivedBroadcasts 6885
scalar World.node[16].nic.mac1609_4 SentPackets 388
scalar World.node[16].nic.mac1609_4 SentAcknowledgements 0
scalar World.node[16].nic.mac1609_4 SNIRLostPackets 2506
scalar World.node[16].nic.mac1609_4 RXTXLostPackets 236
scalar World.node[16].nic.mac1609_4 TotalLostPackets 2742
scalar World.node[16].nic.mac1609_4 DroppedPacketsInMac 0
scalar World.node[16].nic.mac1609_4 TooLittleTime 0
scalar World.node[16].nic.mac1609_4 TimesIntoBackoff 389
scalar World.node[16].nic.mac1609_4 SlotsBackoff 2952
scalar World.node[16].nic.mac1609_4 NumInternalContention 0
scalar World.node[16].nic.mac1609_4 totalBusyTime 1.477348662874
scalar World.node[40].appl.middleware.CaService #cam_sent 92
scalar World.node[40].appl.middleware.ExampleService #full_proofs 0
scalar World.node[40].appl.middleware.ExampleService #half_proofs 1
scalar World.node[40].appl.middleware.ExampleService #failed_proofs 0
scalar World.node[40].appl.middleware.ExampleService #loc_proof_send 14
scalar World.node[40].nic.phy80211p busyTime 0.013770074074074
scalar World.node[40].nic.mac1609_4 ReceivedUnicastPackets 0
scalar World.node[40].nic.mac1609_4 ReceivedBroadcasts 2072
scalar World.node[40].nic.mac1609_4 SentPackets 106
scalar World.node[40].nic.mac1609_4 SentAcknowledgements 0
scalar World.node[40].nic.mac1609_4 SNIRLostPackets 300
scalar World.node[40].nic.mac1609_4 RXTXLostPackets 214
scalar World.node[40].nic.mac1609_4 TotalLostPackets 514
scalar World.node[40].nic.mac1609_4 DroppedPacketsInMac 0
scalar World.node[40].nic.mac1609_4 TooLittleTime 0
scalar World.node[40].nic.mac1609_4 TimesIntoBackoff 112
scalar World.node[40].nic.mac1609_4 SlotsBackoff 865
scalar World.node[40].nic.mac1609_4 NumInternalContention 0
scalar World.node[40].nic.mac1609_4 totalBusyTime 0.375586862379
scalar World.node[14].appl.middleware.CaService #cam_sent 482
scalar World.node[14].appl.middleware.ExampleService #full_proofs 0
scalar World.node[14].appl.middleware.ExampleService #half_proofs 2
scalar World.node[14].appl.middleware.ExampleService #failed_proofs 0
scalar World.node[14].appl.middleware.ExampleService #loc_proof_send 50
scalar World.node[14].nic.phy80211p busyTime 0.011050722222221
scalar World.node[14].nic.mac1609_4 ReceivedUnicastPackets 0
scalar World.node[14].nic.mac1609_4 ReceivedBroadcasts 8330
scalar World.node[14].nic.mac1609_4 SentPackets 532
scalar World.node[14].nic.mac1609_4 SentAcknowledgements 0
scalar World.node[14].nic.mac1609_4 SNIRLostPackets 1679
scalar World.node[14].nic.mac1609_4 RXTXLostPackets 486
scalar World.node[14].nic.mac1609_4 TotalLostPackets 2165
scalar World.node[14].nic.mac1609_4 DroppedPacketsInMac 0
scalar World.node[14].nic.mac1609_4 TooLittleTime 0
scalar World.node[14].nic.mac1609_4 TimesIntoBackoff 545
scalar World.node[14].nic.mac1609_4 SlotsBackoff 4119
scalar World.node[14].nic.mac1609_4 NumInternalContention 0
scalar World.node[14].nic.mac1609_4 totalBusyTime 1.632580721155
scalar World.node[10].appl.middleware.CaService #cam_sent 399
scalar World.node[10].appl.middleware.ExampleService #full_proofs 0
scalar World.node[10].appl.middleware.ExampleService #half_proofs 3
scalar World.node[10].appl.middleware.ExampleService #failed_proofs 0
scalar World.node[10].appl.middleware.ExampleService #loc_proof_send 51
scalar World.node[10].nic.phy80211p busyTime 0.010770213836477
scalar World.node[10].nic.mac1609_4 ReceivedUnicastPackets 0
scalar World.node[10].nic.mac1609_4 ReceivedBroadcasts 9209
scalar World.node[10].nic.mac1609_4 SentPackets 450
scalar World.node[10].nic.mac1609_4 SentAcknowledgements 0
scalar World.node[10].nic.mac1609_4 SNIRLostPackets 1518
scalar World.node[10].nic.mac1609_4 RXTXLostPackets 583
scalar World.node[10].nic.mac1609_4 TotalLostPackets 2101
scalar World.node[10].nic.mac1609_4 DroppedPacketsInMac 0
scalar World.node[10].nic.mac1609_4 TooLittleTime 0
scalar World.node[10].nic.mac1609_4 TimesIntoBackoff 461
scalar World.node[10].nic.mac1609_4 SlotsBackoff 3411
scalar World.node[10].nic.mac1609_4 NumInternalContention 0
scalar World.node[10].nic.mac1609_4 totalBusyTime 1.745458665023
scalar World.node[7].appl.middleware.CaService #cam_sent 484
scalar World.node[7].appl.middleware.ExampleService #full_proofs 0
scalar World.node[7].appl.middleware.ExampleService #half_proofs 3
scalar World.node[7].appl.middleware.ExampleService #failed_proofs 0
scalar World.node[7].appl.middleware.ExampleService #loc_proof_send 59
scalar World.node[7].nic.phy80211p busyTime 0.010775638418078
scalar World.node[7].nic.mac1609_4 ReceivedUnicastPackets 0
scalar World.node[7].nic.mac1609_4 ReceivedBroadcasts 10537
scalar World.node[7].nic.mac1609_4 SentPackets 543
scalar World.node[7].nic.mac1609_4 SentAcknowledgements 0
scalar World.node[7].nic.mac1609_4 SNIRLostPackets 1479
scalar World.node[7].nic.mac1609_4 RXTXLostPackets 431
scalar World.node[7].nic.mac1609_4 TotalLostPackets 1910
scalar World.node[7].nic.mac1609_4 DroppedPacketsInMac 0
scalar World.node[7].nic.mac1609_4 TooLittleTime 0
scalar World.node[7].nic.mac1609_4 TimesIntoBackoff 552
scalar World.node[7].nic.mac1609_4 SlotsBackoff 4251
scalar World.node[7].nic.mac1609_4 NumInternalContention 0
scalar World.node[7].nic.mac1609_4 totalBusyTime 1.930584102531
scalar World.node[30].appl.middleware.CaService #cam_sent 275
scalar World.node[30].appl.middleware.ExampleService #full_proofs 0
scalar World.node[30].appl.middleware.ExampleService #half_proofs 2
scalar World.node[30].appl.middleware.ExampleService #failed_proofs 0
scalar World.node[30].appl.middleware.ExampleService #loc_proof_send 36
scalar World.node[30].nic.phy80211p busyTime 0.014167736263735
scalar World.node[30].nic.mac1609_4 ReceivedUnicastPackets 0
scalar World.node[30].nic.mac1609_4 ReceivedBroadcasts 6781
scalar World.node[30].nic.mac1609_4 SentPackets 311
scalar World.node[30].nic.mac1609_4 SentAcknowledgements 0
scalar World.node[30].nic.mac1609_4 SNIRLostPackets 1359
scalar World.node[30].nic.mac1609_4 RXTXLostPackets 376
scalar World.node[30].nic.mac1609_4 TotalLostPackets 1735
scalar World.node[30].nic.mac1609_4 DroppedPacketsInMac 0
scalar World.node[30].nic.mac1609_4 TooLittleTime 0
scalar World.node[30].nic.mac1609_4 TimesIntoBackoff 320
scalar World.node[30].nic.mac1609_4 SlotsBackoff 2508
scalar World.node[30].nic.mac1609_4 NumInternalContention 0
scalar World.node[30].nic.mac1609_4 totalBusyTime 1.291232760674
scalar World.node[27].appl.middleware.CaService #cam_sent 374
scalar World.node[27].appl.middleware.ExampleService #full_proofs 0
scalar World.node[27].appl.middleware.ExampleService #half_proofs 2
scalar World.node[27].appl.middleware.ExampleService #failed_proofs 0
scalar World.node[27].appl.middleware.ExampleService #loc_proof_send 50
scalar World.node[27].nic.phy80211p busyTime 0.014288672268906
scalar World.node[27].nic.mac1609_4 ReceivedUnicastPackets 0
scalar World.node[27].nic.mac1609_4 ReceivedBroadcasts 9000
scalar World.node[27].nic.mac1609_4 SentPackets 424
scalar World.node[27].nic.mac1609_4 SentAcknowledgements 0
scalar World.node[27].nic.mac1609_4 SNIRLostPackets 1779
scalar World.node[27].nic.mac1609_4 RXTXLostPackets 522
scalar World.node[27].nic.mac1609_4 TotalLostPackets 2301
scalar World.node[27].nic.mac1609_4 DroppedPacketsInMac 0
scalar World.node[27].nic.mac1609_4 TooLittleTime 0
scalar World.node[27].nic.mac1609_4 TimesIntoBackoff 436
scalar World.node[27].nic.mac1609_4 SlotsBackoff 3177
scalar World.node[27].nic.mac1609_4 NumInternalContention 0
scalar World.node[27].nic.mac1609_4 totalBusyTime 1.703930519473
scalar World.node[33].appl.middleware.CaService #cam_sent 252
scalar World.node[33].appl.middleware.ExampleService #full_proofs 0
scalar World.node[33].appl.middleware.ExampleService #half_proofs 1
scalar World.node[33].appl.middleware.ExampleService #failed_proofs 0
scalar World.node[33].appl.middleware.ExampleService #loc_proof_send 47
scalar World.node[33].nic.phy80211p busyTime 0.015193858585857
scalar World.node[33].nic.mac1609_4 ReceivedUnicastPackets 0
scalar World.node[33].nic.mac1609_4 ReceivedBroadcasts 7775
scalar World.node[33].nic.mac1609_4 SentPackets 299
scalar World.node[33].nic.mac1609_4 SentAcknowledgements 0
scalar World.node[33].nic.mac1609_4 SNIRLostPackets 1797
scalar World.node[33].nic.mac1609_4 RXTXLostPackets 401
scalar World.node[33].nic.mac1609_4 TotalLostPackets 2198
scalar World.node[33].nic.mac1609_4 DroppedPacketsInMac 0
scalar World.node[33].nic.mac1609_4 TooLittleTime 0
scalar World.node[33].nic.mac1609_4 TimesIntoBackoff 310
scalar World.node[33].nic.mac1609_4 SlotsBackoff 2293
scalar World.node[33].nic.mac1609_4 NumInternalContention 0
scalar World.node[33].nic.mac1609_4 totalBusyTime 1.481948565888
scalar World.node[31].appl.middleware.CaService #cam_sent 373
scalar World.node[31].appl.middleware.ExampleService #full_proofs 0
scalar World.node[31].appl.middleware.ExampleService #half_proofs 2
scalar World.node[31].appl.middleware.ExampleService #failed_proofs 0
scalar World.node[31].appl.middleware.ExampleService #loc_proof_send 52
scalar World.node[31].nic.phy80211p busyTime 0.015089966101693
scalar World.node[31].nic.mac1609_4 ReceivedUnicastPackets 0
scalar World.node[31].nic.mac1609_4 ReceivedBroadcasts 9703
scalar World.node[31].nic.mac1609_4 SentPackets 425
scalar World.node[31].nic.mac1609_4 SentAcknowledgements 0
scalar World.node[31].nic.mac1609_4 SNIRLostPackets 1578
scalar World.node[31].nic.mac1609_4 RXTXLostPackets 563
scalar World.node[31].nic.mac1609_4 TotalLostPackets 2141
scalar World.node[31].nic.mac1609_4 DroppedPacketsInMac 0
scalar World.node[31].nic.mac1609_4 TooLittleTime 0
scalar World.node[31].nic.mac1609_4 TimesIntoBackoff 439
scalar World.node[31].nic.mac1609_4 SlotsBackoff 3350
scalar World.node[31].nic.mac1609_4 NumInternalContention 0
scalar World.node[31].nic.mac1609_4 totalBusyTime 1.77937079761
scalar World.node[24].appl.middleware.CaService #cam_sent 424
scalar World.node[24].appl.middleware.ExampleService #full_proofs 0
scalar World.node[24].appl.middleware.ExampleService #half_proofs 2
scalar World.node[24].appl.middleware.ExampleService #failed_proofs 0
scalar World.node[24].appl.middleware.ExampleService #loc_proof_send 58
scalar World.node[24].nic.phy80211p busyTime 0.014625142857141
scalar World.node[24].nic.mac1609_4 ReceivedUnicastPackets 0
scalar World.node[24].nic.mac1609_4 ReceivedBroadcasts 10912
scalar World.node[24].nic.mac1609_4 SentPackets 482
scalar World.node[24].nic.mac1609_4 SentAcknowledgements 0
scalar World.node[24].nic.mac1609_4 SNIRLostPackets 2126
scalar World.node[24].nic.mac1609_4 RXTXLostPackets 333
scalar World.node[24].nic.mac1609_4 TotalLostPackets 2459
scalar World.node[24].nic.mac1609_4 DroppedPacketsInMac 0
scalar World.node[24].nic.mac1609_4 TooLittleTime 0
scalar World.node[24].nic.mac1609_4 TimesIntoBackoff 491
scalar World.node[24].nic.mac1609_4 SlotsBackoff 3656
scalar World.node[24].nic.mac1609_4 NumInternalContention 0
scalar World.node[24].nic.mac1609_4 totalBusyTime 2.018994597328
scalar World.node[12].appl.middleware.CaService #cam_sent 641
scalar World.node[12].appl.middleware.ExampleService #full_proofs 0
scalar World.node[12].appl.middleware.ExampleService #half_proofs 3
scalar World.node[12].appl.middleware.ExampleService #failed_proofs 0
scalar World.node[12].appl.middleware.ExampleService #loc_proof_send 72
scalar World.node[12].nic.phy80211p busyTime 0.012404582914572
scalar World.node[12].nic.mac1609_4 ReceivedUnicastPackets 0
scalar World.node[12].nic.mac1609_4 ReceivedBroadcasts 12552
scalar World.node[12].nic.mac1609_4 SentPackets 713
scalar World.node[12].nic.mac1609_4 SentAcknowledgements 0
scalar World.node[12].nic.mac1609_4 SNIRLostPackets 3045
scalar World.node[12].nic.mac1609_4 RXTXLostPackets 665
scalar World.node[12].nic.mac1609_4 TotalLostPackets 3710
scalar World.node[12].nic.mac1609_4 DroppedPacketsInMac 0
scalar World.node[12].nic.mac1609_4 TooLittleTime 0
scalar World.node[12].nic.mac1609_4 TimesIntoBackoff 734
scalar World.node[12].nic.mac1609_4 SlotsBackoff 5389
scalar World.node[12].nic.mac1609_4 NumInternalContention 0
scalar World.node[12].nic.mac1609_4 totalBusyTime 2.496580089997
scalar World.node[53].appl.middleware.CaService #cam_sent 108
scalar World.node[53].appl.middleware.ExampleService #full_proofs 0
scalar World.node[53].appl.middleware.ExampleService #half_proofs 1
scalar World.node[53].appl.middleware.ExampleService #failed_proofs 0
scalar World.node[53].appl.middleware.ExampleService #loc_proof_send 14
scalar World.node[53].nic.phy80211p busyTime 0.01781925
scalar World.node[53].nic.mac1609_4 ReceivedUnicastPackets 0
scalar World.node[53].nic.mac1609_4 ReceivedBroadcasts 2417
scalar World.node[53].nic.mac1609_4 SentPackets 122
scalar World.node[53].nic.mac1609_4 SentAcknowledgements 0
scalar World.node[53].nic.mac1609_4 SNIRLostPackets 1259
scalar World.node[53].nic.mac1609_4 RXTXLostPackets 101
scalar World.node[53].nic.mac1609_4 TotalLostPackets 1360
scalar World.node[53].nic.mac1609_4 DroppedPacketsInMac 0
scalar World.node[53].nic.mac1609_4 TooLittleTime 0
scalar World.node[53].nic.mac1609_4 TimesIntoBackoff 122
scalar World.node[53].nic.mac1609_4 SlotsBackoff 823
scalar World.node[53].nic.mac1609_4 NumInternalContention 0
scalar World.node[53].nic.mac1609_4 totalBusyTime 0.556434111709
scalar World.node[26].appl.middleware.CaService #cam_sent 411
scalar World.node[26].appl.middleware.ExampleService #full_proofs 0
scalar World.node[26].appl.middleware.ExampleService #half_proofs 2
scalar World.node[26].appl.middleware.ExampleService #failed_proofs 0
scalar World.node[26].appl.middleware.ExampleService #loc_proof_send 54
scalar World.node[26].nic.phy80211p busyTime 0.01487419178082
scalar World.node[26].nic.mac1609_4 ReceivedUnicastPackets 0
scalar World.node[26].nic.mac1609_4 ReceivedBroadcasts 9952
scalar World.node[26].nic.mac1609_4 SentPackets 465
scalar World.node[26].nic.mac1609_4 SentAcknowledgements 0
scalar World.node[26].nic.mac1609_4 SNIRLostPackets 3833
scalar World.node[26].nic.mac1609_4 RXTXLostPackets 679
scalar World.node[26].nic.mac1609_4 TotalLostPackets 4512
scalar World.node[26].nic.mac1609_4 DroppedPacketsInMac 0
scalar World.node[26].nic.mac1609_4 TooLittleTime 0
scalar World.node[26].nic.mac1609_4 TimesIntoBackoff 479
scalar World.node[26].nic.mac1609_4 SlotsBackoff 3638
scalar World.node[26].nic.mac1609_4 NumInternalContention 0
scalar World.node[26].nic.mac1609_4 totalBusyTime 2.161081163997
scalar World.node[38].appl.middleware.CaService #cam_sent 320
scalar World.node[38].appl.middleware.ExampleService #full_proofs 0
scalar World.node[38].appl.middleware.ExampleService #half_proofs 2
scalar World.node[38].appl.middleware.ExampleService #failed_proofs 0
scalar World.node[38].appl.middleware.ExampleService #loc_proof_send 54
scalar World.node[38].nic.phy80211p busyTime 0.016118399999999
scalar World.node[38].nic.mac1609_4 ReceivedUnicastPackets 0
scalar World.node[38].nic.mac1609_4 ReceivedBroadcasts 9143
scalar World.node[38].nic.mac1609_4 SentPackets 374
scalar World.node[38].nic.mac1609_4 SentAcknowledgements 0
scalar World.node[38].nic.mac1609_4 SNIRLostPackets 1169
scalar World.node[38].nic.mac1609_4 RXTXLostPackets 357
scalar World.node[38].nic.mac1609_4 TotalLostPackets 1526
scalar World.node[38].nic.mac1609_4 DroppedPacketsInMac 0
scalar World.node[38].nic.mac1609_4 TooLittleTime 0
scalar World.node[38].nic.mac1609_4 TimesIntoBackoff 384
scalar World.node[38].nic.mac1609_4 SlotsBackoff 2743
scalar World.node[38].nic.mac1609_4 NumInternalContention 0
scalar World.node[38].nic.mac1609_4 totalBusyTime 1.582847886157
scalar World.node[63].appl.middleware.CaService #cam_sent 38
scalar World.node[63].appl.middleware.ExampleService #full_proofs 0
scalar World.node[63].appl.middleware.ExampleService #half_proofs 0
scalar World.node[63].appl.middleware.ExampleService #failed_proofs 0
scalar World.node[63].appl.middleware.ExampleService #loc_proof_send 5
scalar World.node[63].nic.phy80211p busyTime 0.015748363636364
scalar World.node[63].nic.mac1609_4 ReceivedUnicastPackets 0
scalar World.node[63].nic.mac1609_4 ReceivedBroadcasts 883
scalar World.node[63].nic.mac1609_4 SentPackets 43
scalar World.node[63].nic.mac1609_4 SentAcknowledgements 0
scalar World.node[63].nic.mac1609_4 SNIRLostPackets 220
scalar World.node[63].nic.mac1609_4 RXTXLostPackets 80
scalar World.node[63].nic.mac1609_4 TotalLostPackets 300
scalar World.node[63].nic.mac1609_4 DroppedPacketsInMac 0
scalar World.node[63].nic.mac1609_4 TooLittleTime 0
scalar World.node[63].nic.mac1609_4 TimesIntoBackoff 43
scalar World.node[63].nic.mac1609_4 SlotsBackoff 337
scalar World.node[63].nic.mac1609_4 NumInternalContention 0
scalar World.node[63].nic.mac1609_4 totalBusyTime 0.168907595294
scalar World.node[54].appl.middleware.CaService #cam_sent 192
scalar World.node[54].appl.middleware.ExampleService #full_proofs 0
scalar World.node[54].appl.middleware.ExampleService #half_proofs 1
scalar World.node[54].appl.middleware.ExampleService #failed_proofs 0
scalar World.node[54].appl.middleware.ExampleService #loc_proof_send 31
scalar World.node[54].nic.phy80211p busyTime 0.017113543859649
scalar World.node[54].nic.mac1609_4 ReceivedUnicastPackets 0
scalar World.node[54].nic.mac1609_4 ReceivedBroadcasts 5283
scalar World.node[54].nic.mac1609_4 SentPackets 223
scalar World.node[54].nic.mac1609_4 SentAcknowledgements 0
scalar World.node[54].nic.mac1609_4 SNIRLostPackets 996
scalar World.node[54].nic.mac1609_4 RXTXLostPackets 215
scalar World.node[54].nic.mac1609_4 TotalLostPackets 1211
scalar World.node[54].nic.mac1609_4 DroppedPacketsInMac 0
scalar World.node[54].nic.mac1609_4 TooLittleTime 0
scalar World.node[54].nic.mac1609_4 TimesIntoBackoff 314
scalar World.node[54].nic.mac1609_4 SlotsBackoff 2274
scalar World.node[54].nic.mac1609_4 NumInternalContention 0
scalar World.node[54].nic.mac1609_4 totalBusyTime 0.949128767173
scalar World.node[20].appl.middleware.CaService #cam_sent 501
scalar World.node[20].appl.middleware.ExampleService #full_proofs 0
scalar World.node[20].appl.middleware.ExampleService #half_proofs 4
scalar World.node[20].appl.middleware.ExampleService #failed_proofs 0
scalar World.node[20].appl.middleware.ExampleService #loc_proof_send 86
scalar World.node[20].nic.phy80211p busyTime 0.014116020304568
scalar World.node[20].nic.mac1609_4 ReceivedUnicastPackets 0
scalar World.node[20].nic.mac1609_4 ReceivedBroadcasts 15570
scalar World.node[20].nic.mac1609_4 SentPackets 587
scalar World.node[20].nic.mac1609_4 SentAcknowledgements 0
scalar World.node[20].nic.mac1609_4 SNIRLostPackets 2038
scalar World.node[20].nic.mac1609_4 RXTXLostPackets 777
scalar World.node[20].nic.mac1609_4 TotalLostPackets 2815
scalar World.node[20].nic.mac1609_4 DroppedPacketsInMac 0
scalar World.node[20].nic.mac1609_4 TooLittleTime 0
scalar World.node[20].nic.mac1609_4 TimesIntoBackoff 593
scalar World.node[20].nic.mac1609_4 SlotsBackoff 4497
scalar World.node[20].nic.mac1609_4 NumInternalContention 0
scalar World.node[20].nic.mac1609_4 totalBusyTime 2.75315023542
scalar World.node[4].appl.middleware.CaService #cam_sent 722
scalar World.node[4].appl.middleware.ExampleService #full_proofs 0
scalar World.node[4].appl.middleware.ExampleService #half_proofs 4
scalar World.node[4].appl.middleware.ExampleService #failed_proofs 0
scalar World.node[4].appl.middleware.ExampleService #loc_proof_send 80
scalar World.node[4].nic.phy80211p busyTime 0.01208880620155
scalar World.node[4].nic.mac1609_4 ReceivedUnicastPackets 0
scalar World.node[4].nic.mac1609_4 ReceivedBroadcasts 14548
scalar World.node[4].nic.mac1609_4 SentPackets 802
scalar World.node[4].nic.mac1609_4 SentAcknowledgements 0
scalar World.node[4].nic.mac1609_4 SNIRLostPackets 5240
scalar World.node[4].nic.mac1609_4 RXTXLostPackets 691
scalar World.node[4].nic.mac1609_4 TotalLostPackets 5931
scalar World.node[4].nic.mac1609_4 DroppedPacketsInMac 0
scalar World.node[4].nic.mac1609_4 TooLittleTime 0
scalar World.node[4].nic.mac1609_4 TimesIntoBackoff 819
scalar World.node[4].nic.mac1609_4 SlotsBackoff 5913
scalar World.node[4].nic.mac1609_4 NumInternalContention 0
scalar World.node[4].nic.mac1609_4 totalBusyTime 3.108794261946
scalar World.node[36].appl.middleware.CaService #cam_sent 314
scalar World.node[36].appl.middleware.ExampleService #full_proofs 0
scalar World.node[36].appl.middleware.ExampleService #half_proofs 2
scalar World.node[36].appl.middleware.ExampleService #failed_proofs 0
scalar World.node[36].appl.middleware.ExampleService #loc_proof_send 66
scalar World.node[36].nic.phy80211p busyTime 0.015792307692306
scalar World.node[36].nic.mac1609_4 ReceivedUnicastPackets 0
scalar World.node[36].nic.mac1609_4 ReceivedBroadcasts 11226
scalar World.node[36].nic.mac1609_4 SentPackets 380
scalar World.node[36].nic.mac1609_4 SentAcknowledgements 0
scalar World.node[36].nic.mac1609_4 SNIRLostPackets 1811
scalar World.node[36].nic.mac1609_4 RXTXLostPackets 880
scalar World.node[36].nic.mac1609_4 TotalLostPackets 2691
scalar World.node[36].nic.mac1609_4 DroppedPacketsInMac 0
scalar World.node[36].nic.mac1609_4 TooLittleTime 0
scalar World.node[36].nic.mac1609_4 TimesIntoBackoff 395
scalar World.node[36].nic.mac1609_4 SlotsBackoff 2968
scalar World.node[36].nic.mac1609_4 NumInternalContention 0
scalar World.node[36].nic.mac1609_4 totalBusyTime 2.032813823998
scalar World.node[25].appl.middleware.CaService #cam_sent 507
scalar World.node[25].appl.middleware.ExampleService #full_proofs 0
scalar World.node[25].appl.middleware.ExampleService #half_proofs 2
scalar World.node[25].appl.middleware.ExampleService #failed_proofs 1
scalar World.node[25].appl.middleware.ExampleService #loc_proof_send 81
scalar World.node[25].nic.phy80211p busyTime 0.014930181818181
scalar World.node[25].nic.mac1609_4 ReceivedUnicastPackets 0
scalar World.node[25].nic.mac1609_4 ReceivedBroadcasts 14722
scalar World.node[25].nic.mac1609_4 SentPackets 588
scalar World.node[25].nic.mac1609_4 SentAcknowledgements 0
scalar World.node[25].nic.mac1609_4 SNIRLostPackets 1908
scalar World.node[25].nic.mac1609_4 RXTXLostPackets 990
scalar World.node[25].nic.mac1609_4 TotalLostPackets 2898
scalar World.node[25].nic.mac1609_4 DroppedPacketsInMac 0
scalar World.node[25].nic.mac1609_4 TooLittleTime 0
scalar World.node[25].nic.mac1609_4 TimesIntoBackoff 604
scalar World.node[25].nic.mac1609_4 SlotsBackoff 4581
scalar World.node[25].nic.mac1609_4 NumInternalContention 0
scalar World.node[25].nic.mac1609_4 totalBusyTime 2.627421265815
scalar World.node[11].appl.middleware.CaService #cam_sent 663
scalar World.node[11].appl.middleware.ExampleService #full_proofs 0
scalar World.node[11].appl.middleware.ExampleService #half_proofs 4
scalar World.node[11].appl.middleware.ExampleService #failed_proofs 0
scalar World.node[11].appl.middleware.ExampleService #loc_proof_send 94
scalar World.node[11].nic.phy80211p busyTime 0.013054937759336
scalar World.node[11].nic.mac1609_4 ReceivedUnicastPackets 0
scalar World.node[11].nic.mac1609_4 ReceivedBroadcasts 16133
scalar World.node[11].nic.mac1609_4 SentPackets 757
scalar World.node[11].nic.mac1609_4 SentAcknowledgements 0
scalar World.node[11].nic.mac1609_4 SNIRLostPackets 3721
scalar World.node[11].nic.mac1609_4 RXTXLostPackets 1053
scalar World.node[11].nic.mac1609_4 TotalLostPackets 4774
scalar World.node[11].nic.mac1609_4 DroppedPacketsInMac 0
scalar World.node[11].nic.mac1609_4 TooLittleTime 0
scalar World.node[11].nic.mac1609_4 TimesIntoBackoff 775
scalar World.node[11].nic.mac1609_4 SlotsBackoff 5764
scalar World.node[11].nic.mac1609_4 NumInternalContention 0
scalar World.node[11].nic.mac1609_4 totalBusyTime 3.154975368406
scalar World.node[18].appl.middleware.CaService #cam_sent 538
scalar World.node[18].appl.middleware.ExampleService #full_proofs 0
scalar World.node[18].appl.middleware.ExampleService #half_proofs 4
scalar World.node[18].appl.middleware.ExampleService #failed_proofs 0
scalar World.node[18].appl.middleware.ExampleService #loc_proof_send 95
scalar World.node[18].nic.phy80211p busyTime 0.014119582938389
scalar World.node[18].nic.mac1609_4 ReceivedUnicastPackets 0
scalar World.node[18].nic.mac1609_4 ReceivedBroadcasts 16482
scalar World.node[18].nic.mac1609_4 SentPackets 633
scalar World.node[18].nic.mac1609_4 SentAcknowledgements 0
scalar World.node[18].nic.mac1609_4 SNIRLostPackets 2371
scalar World.node[18].nic.mac1609_4 RXTXLostPackets 895
scalar World.node[18].nic.mac1609_4 TotalLostPackets 3266
scalar World.node[18].nic.mac1609_4 DroppedPacketsInMac 0
scalar World.node[18].nic.mac1609_4 TooLittleTime 0
scalar World.node[18].nic.mac1609_4 TimesIntoBackoff 641
scalar World.node[18].nic.mac1609_4 SlotsBackoff 4768
scalar World.node[18].nic.mac1609_4 NumInternalContention 0
scalar World.node[18].nic.mac1609_4 totalBusyTime 2.954082754764
scalar World.node[28].appl.middleware.CaService #cam_sent 419
scalar World.node[28].appl.middleware.ExampleService #full_proofs 0
scalar World.node[28].appl.middleware.ExampleService #half_proofs 3
scalar World.node[28].appl.middleware.ExampleService #failed_proofs 0
scalar World.node[28].appl.middleware.ExampleService #loc_proof_send 62
scalar World.node[28].nic.phy80211p busyTime 0.015701517241379
scalar World.node[28].nic.mac1609_4 ReceivedUnicastPackets 0
scalar World.node[28].nic.mac1609_4 ReceivedBroadcasts 11561
scalar World.node[28].nic.mac1609_4 SentPackets 481
scalar World.node[28].nic.mac1609_4 SentAcknowledgements 0
scalar World.node[28].nic.mac1609_4 SNIRLostPackets 5848
scalar World.node[28].nic.mac1609_4 RXTXLostPackets 726
scalar World.node[28].nic.mac1609_4 TotalLostPackets 6574
scalar World.node[28].nic.mac1609_4 DroppedPacketsInMac 0
scalar World.node[28].nic.mac1609_4 TooLittleTime 0
scalar World.node[28].nic.mac1609_4 TimesIntoBackoff 491
scalar World.node[28].nic.mac1609_4 SlotsBackoff 3566
scalar World.node[28].nic.mac1609_4 NumInternalContention 0
scalar World.node[28].nic.mac1609_4 totalBusyTime 2.667212005565
scalar World.node[56].appl.middleware.CaService #cam_sent 169
scalar World.node[56].appl.middleware.ExampleService #full_proofs 0
scalar World.node[56].appl.middleware.ExampleService #half_proofs 1
scalar World.node[56].appl.middleware.ExampleService #failed_proofs 0
scalar World.node[56].appl.middleware.ExampleService #loc_proof_send 39
scalar World.node[56].nic.phy80211p busyTime 0.017662444444443
scalar World.node[56].nic.mac1609_4 ReceivedUnicastPackets 0
scalar World.node[56].nic.mac1609_4 ReceivedBroadcasts 7295
scalar World.node[56].nic.mac1609_4 SentPackets 208
scalar World.node[56].nic.mac1609_4 SentAcknowledgements 0
scalar World.node[56].nic.mac1609_4 SNIRLostPackets 808
scalar World.node[56].nic.mac1609_4 RXTXLostPackets 367
scalar World.node[56].nic.mac1609_4 TotalLostPackets 1175
scalar World.node[56].nic.mac1609_4 DroppedPacketsInMac 0
scalar World.node[56].nic.mac1609_4 TooLittleTime 0
scalar World.node[56].nic.mac1609_4 TimesIntoBackoff 215
scalar World.node[56].nic.mac1609_4 SlotsBackoff 1745
scalar World.node[56].nic.mac1609_4 NumInternalContention 0
scalar World.node[56].nic.mac1609_4 totalBusyTime 1.237768677565
scalar World.node[5].appl.middleware.CaService #cam_sent 866
scalar World.node[5].appl.middleware.ExampleService #full_proofs 0
scalar World.node[5].appl.middleware.ExampleService #half_proofs 5
scalar World.node[5].appl.middleware.ExampleService #failed_proofs 0
scalar World.node[5].appl.middleware.ExampleService #loc_proof_send 113
scalar World.node[5].nic.phy80211p busyTime 0.012679536231884
scalar World.node[5].nic.mac1609_4 ReceivedUnicastPackets 0
scalar World.node[5].nic.mac1609_4 ReceivedBroadcasts 19512
scalar World.node[5].nic.mac1609_4 SentPackets 979
scalar World.node[5].nic.mac1609_4 SentAcknowledgements 0
scalar World.node[5].nic.mac1609_4 SNIRLostPackets 2606
scalar World.node[5].nic.mac1609_4 RXTXLostPackets 1186
scalar World.node[5].nic.mac1609_4 TotalLostPackets 3792
scalar World.node[5].nic.mac1609_4 DroppedPacketsInMac 0
scalar World.node[5].nic.mac1609_4 TooLittleTime 0
scalar World.node[5].nic.mac1609_4 TimesIntoBackoff 1010
scalar World.node[5].nic.mac1609_4 SlotsBackoff 7531
scalar World.node[5].nic.mac1609_4 NumInternalContention 0
scalar World.node[5].nic.mac1609_4 totalBusyTime 3.530267951009
scalar World.node[68].appl.middleware.CaService #cam_sent 92
scalar World.node[68].appl.middleware.ExampleService #full_proofs 0
scalar World.node[68].appl.middleware.ExampleService #half_proofs 0
scalar World.node[68].appl.middleware.ExampleService #failed_proofs 0
scalar World.node[68].appl.middleware.ExampleService #loc_proof_send 10
scalar World.node[68].nic.phy80211p busyTime 0.018926518518518
scalar World.node[68].nic.mac1609_4 ReceivedUnicastPackets 0
scalar World.node[68].nic.mac1609_4 ReceivedBroadcasts 1346
scalar World.node[68].nic.mac1609_4 SentPackets 102
scalar World.node[68].nic.mac1609_4 SentAcknowledgements 0
scalar World.node[68].nic.mac1609_4 SNIRLostPackets 1920
scalar World.node[68].nic.mac1609_4 RXTXLostPackets 113
scalar World.node[68].nic.mac1609_4 TotalLostPackets 2033
scalar World.node[68].nic.mac1609_4 DroppedPacketsInMac 0
scalar World.node[68].nic.mac1609_4 TooLittleTime 0
scalar World.node[68].nic.mac1609_4 TimesIntoBackoff 104
scalar World.node[68].nic.mac1609_4 SlotsBackoff 713
scalar World.node[68].nic.mac1609_4 NumInternalContention 0
scalar World.node[68].nic.mac1609_4 totalBusyTime 0.493102
scalar World.node[39].appl.middleware.CaService #cam_sent 424
scalar World.node[39].appl.middleware.ExampleService #full_proofs 0
scalar World.node[39].appl.middleware.ExampleService #half_proofs 2
scalar World.node[39].appl.middleware.ExampleService #failed_proofs 1
scalar World.node[39].appl.middleware.ExampleService #loc_proof_send 77
scalar World.node[39].nic.phy80211p busyTime 0.016407547169811
scalar World.node[39].nic.mac1609_4 ReceivedUnicastPackets 0
scalar World.node[39].nic.mac1609_4 ReceivedBroadcasts 13862
scalar World.node[39].nic.mac1609_4 SentPackets 501
scalar World.node[39].nic.mac1609_4 SentAcknowledgements 0
scalar World.node[39].nic.mac1609_4 SNIRLostPackets 2678
scalar World.node[39].nic.mac1609_4 RXTXLostPackets 1100
scalar World.node[39].nic.mac1609_4 TotalLostPackets 3778
scalar World.node[39].nic.mac1609_4 DroppedPacketsInMac 0
scalar World.node[39].nic.mac1609_4 TooLittleTime 0
scalar World.node[39].nic.mac1609_4 TimesIntoBackoff 518
scalar World.node[39].nic.mac1609_4 SlotsBackoff 3810
scalar World.node[39].nic.mac1609_4 NumInternalContention 0
scalar World.node[39].nic.mac1609_4 totalBusyTime 2.57924592513
scalar World.node[67].appl.middleware.CaService #cam_sent 172
scalar World.node[67].appl.middleware.ExampleService #full_proofs 0
scalar World.node[67].appl.middleware.ExampleService #half_proofs 1
scalar World.node[67].appl.middleware.ExampleService #failed_proofs 0
scalar World.node[67].appl.middleware.ExampleService #loc_proof_send 16
scalar World.node[67].nic.phy80211p busyTime 0.017894431372549
scalar World.node[67].nic.mac1609_4 ReceivedUnicastPackets 0
scalar World.node[67].nic.mac1609_4 ReceivedBroadcasts 3426
scalar World.node[67].nic.mac1609_4 SentPackets 188
scalar World.node[67].nic.mac1609_4 SentAcknowledgements 0
scalar World.node[67].nic.mac1609_4 SNIRLostPackets 2441
scalar World.node[67].nic.mac1609_4 RXTXLostPackets 263
scalar World.node[67].nic.mac1609_4 TotalLostPackets 2704
scalar World.node[67].nic.mac1609_4 DroppedPacketsInMac 0
scalar World.node[67].nic.mac1609_4 TooLittleTime 0
scalar World.node[67].nic.mac1609_4 TimesIntoBackoff 199
scalar World.node[67].nic.mac1609_4 SlotsBackoff 1632
scalar World.node[67].nic.mac1609_4 NumInternalContention 0
scalar World.node[67].nic.mac1609_4 totalBusyTime 0.88162
scalar World.node[57].appl.middleware.CaService #cam_sent 236
scalar World.node[57].appl.middleware.ExampleService #full_proofs 0
scalar World.node[57].appl.middleware.ExampleService #half_proofs 2
scalar World.node[57].appl.middleware.ExampleService #failed_proofs 0
scalar World.node[57].appl.middleware.ExampleService #loc_proof_send 54
scalar World.node[57].nic.phy80211p busyTime 0.017434814814812
scalar World.node[57].nic.mac1609_4 ReceivedUnicastPackets 0
scalar World.node[57].nic.mac1609_4 ReceivedBroadcasts 9910
scalar World.node[57].nic.mac1609_4 SentPackets 290
scalar World.node[57].nic.mac1609_4 SentAcknowledgements 0
scalar World.node[57].nic.mac1609_4 SNIRLostPackets 1989
scalar World.node[57].nic.mac1609_4 RXTXLostPackets 935
scalar World.node[57].nic.mac1609_4 TotalLostPackets 2924
scalar World.node[57].nic.mac1609_4 DroppedPacketsInMac 0
scalar World.node[57].nic.mac1609_4 TooLittleTime 0
scalar World.node[57].nic.mac1609_4 TimesIntoBackoff 297
scalar World.node[57].nic.mac1609_4 SlotsBackoff 2190
scalar World.node[57].nic.mac1609_4 NumInternalContention 0
scalar World.node[57].nic.mac1609_4 totalBusyTime 1.852116482217
scalar World.node[32].appl.middleware.CaService #cam_sent 602
scalar World.node[32].appl.middleware.ExampleService #full_proofs 0
scalar World.node[32].appl.middleware.ExampleService #half_proofs 3
scalar World.node[32].appl.middleware.ExampleService #failed_proofs 0
scalar World.node[32].appl.middleware.ExampleService #loc_proof_send 101
scalar World.node[32].nic.phy80211p busyTime 0.016178805687204
scalar World.node[32].nic.mac1609_4 ReceivedUnicastPackets 0
scalar World.node[32].nic.mac1609_4 ReceivedBroadcasts 17919
scalar World.node[32].nic.mac1609_4 SentPackets 703
scalar World.node[32].nic.mac1609_4 SentAcknowledgements 0
scalar World.node[32].nic.mac1609_4 SNIRLostPackets 3706
scalar World.node[32].nic.mac1609_4 RXTXLostPackets 1443
scalar World.node[32].nic.mac1609_4 TotalLostPackets 5149
scalar World.node[32].nic.mac1609_4 DroppedPacketsInMac 0
scalar World.node[32].nic.mac1609_4 TooLittleTime 0
scalar World.node[32].nic.mac1609_4 TimesIntoBackoff 727
scalar World.node[32].nic.mac1609_4 SlotsBackoff 5375
scalar World.node[32].nic.mac1609_4 NumInternalContention 0
scalar World.node[32].nic.mac1609_4 totalBusyTime 3.396848620531
scalar World.node[79].appl.middleware.CaService #cam_sent 88
scalar World.node[79].appl.middleware.ExampleService #full_proofs 0
scalar World.node[79].appl.middleware.ExampleService #half_proofs 0
scalar World.node[79].appl.middleware.ExampleService #failed_proofs 0
scalar World.node[79].appl.middleware.ExampleService #loc_proof_send 12
scalar World.node[79].nic.phy80211p busyTime 0.019431384615384
scalar World.node[79].nic.mac1609_4 ReceivedUnicastPackets 0
scalar World.node[79].nic.mac1609_4 ReceivedBroadcasts 2248
scalar World.node[79].nic.mac1609_4 SentPackets 100
scalar World.node[79].nic.mac1609_4 SentAcknowledgements 0
scalar World.node[79].nic.mac1609_4 SNIRLostPackets 991
scalar World.node[79].nic.mac1609_4 RXTXLostPackets 137
scalar World.node[79].nic.mac1609_4 TotalLostPackets 1128
scalar World.node[79].nic.mac1609_4 DroppedPacketsInMac 0
scalar World.node[79].nic.mac1609_4 TooLittleTime 0
scalar World.node[79].nic.mac1609_4 TimesIntoBackoff 102
scalar World.node[79].nic.mac1609_4 SlotsBackoff 759
scalar World.node[79].nic.mac1609_4 NumInternalContention 0
scalar World.node[79].nic.mac1609_4 totalBusyTime 0.486860683488
scalar World.node[23].appl.middleware.CaService #cam_sent 583
scalar World.node[23].appl.middleware.ExampleService #full_proofs 0
scalar World.node[23].appl.middleware.ExampleService #half_proofs 4
scalar World.node[23].appl.middleware.ExampleService #failed_proofs 0
scalar World.node[23].appl.middleware.ExampleService #loc_proof_send 109
scalar World.node[23].nic.phy80211p busyTime 0.015770364372471
scalar World.node[23].nic.mac1609_4 ReceivedUnicastPackets 0
scalar World.node[23].nic.mac1609_4 ReceivedBroadcasts 20470
scalar World.node[23].nic.mac1609_4 SentPackets 692
scalar World.node[23].nic.mac1609_4 SentAcknowledgements 0
scalar World.node[23].nic.mac1609_4 SNIRLostPackets 4204
scalar World.node[23].nic.mac1609_4 RXTXLostPackets 1529
scalar World.node[23].nic.mac1609_4 TotalLostPackets 5733
scalar World.node[23].nic.mac1609_4 DroppedPacketsInMac 0
scalar World.node[23].nic.mac1609_4 TooLittleTime 0
scalar World.node[23].nic.mac1609_4 TimesIntoBackoff 713
scalar World.node[23].nic.mac1609_4 SlotsBackoff 5397
scalar World.node[23].nic.mac1609_4 NumInternalContention 0
scalar World.node[23].nic.mac1609_4 totalBusyTime 3.843049537342
scalar World.node[52].appl.middleware.CaService #cam_sent 461
scalar World.node[52].appl.middleware.ExampleService #full_proofs 0
scalar World.node[52].appl.middleware.ExampleService #half_proofs 3
scalar World.node[52].appl.middleware.ExampleService #failed_proofs 0
scalar World.node[52].appl.middleware.ExampleService #loc_proof_send 76
scalar World.node[52].nic.phy80211p busyTime 0.01791116083916
scalar World.node[52].nic.mac1609_4 ReceivedUnicastPackets 0
scalar World.node[52].nic.mac1609_4 ReceivedBroadcasts 12855
scalar World.node[52].nic.mac1609_4 SentPackets 537
scalar World.node[52].nic.mac1609_4 SentAcknowledgements 0
scalar World.node[52].nic.mac1609_4 SNIRLostPackets 3544
scalar World.node[52].nic.mac1609_4 RXTXLostPackets 838
scalar World.node[52].nic.mac1609_4 TotalLostPackets 4382
scalar World.node[52].nic.mac1609_4 DroppedPacketsInMac 0
scalar World.node[52].nic.mac1609_4 TooLittleTime 0
scalar World.node[52].nic.mac1609_4 TimesIntoBackoff 550
scalar World.node[52].nic.mac1609_4 SlotsBackoff 4406
scalar World.node[52].nic.mac1609_4 NumInternalContention 0
scalar World.node[52].nic.mac1609_4 totalBusyTime 2.493443596846
scalar World.node[37].appl.middleware.CaService #cam_sent 564
scalar World.node[37].appl.middleware.ExampleService #full_proofs 0
scalar World.node[37].appl.middleware.ExampleService #half_proofs 2
scalar World.node[37].appl.middleware.ExampleService #failed_proofs 1
scalar World.node[37].appl.middleware.ExampleService #loc_proof_send 92
scalar World.node[37].nic.phy80211p busyTime 0.017089990049752
scalar World.node[37].nic.mac1609_4 ReceivedUnicastPackets 0
scalar World.node[37].nic.mac1609_4 ReceivedBroadcasts 15578
scalar World.node[37].nic.mac1609_4 SentPackets 656
scalar World.node[37].nic.mac1609_4 SentAcknowledgements 0
scalar World.node[37].nic.mac1609_4 SNIRLostPackets 6365
scalar World.node[37].nic.mac1609_4 RXTXLostPackets 1062
scalar World.node[37].nic.mac1609_4 TotalLostPackets 7427
scalar World.node[37].nic.mac1609_4 DroppedPacketsInMac 0
scalar World.node[37].nic.mac1609_4 TooLittleTime 0
scalar World.node[37].nic.mac1609_4 TimesIntoBackoff 679
scalar World.node[37].nic.mac1609_4 SlotsBackoff 4956
scalar World.node[37].nic.mac1609_4 NumInternalContention 0
scalar World.node[37].nic.mac1609_4 totalBusyTime 3.344192469789
scalar World.node[43].appl.middleware.CaService #cam_sent 490
scalar World.node[43].appl.middleware.ExampleService #full_proofs 0
scalar World.node[43].appl.middleware.ExampleService #half_proofs 3
scalar World.node[43].appl.middleware.ExampleService #failed_proofs 0
scalar World.node[43].appl.middleware.ExampleService #loc_proof_send 78
scalar World.node[43].nic.phy80211p busyTime 0.017564773480663
scalar World.node[43].nic.mac1609_4 ReceivedUnicastPackets 0
scalar World.node[43].nic.mac1609_4 ReceivedBroadcasts 13830
scalar World.node[43].nic.mac1609_4 SentPackets 568
scalar World.node[43].nic.mac1609_4 SentAcknowledgements 0
scalar World.node[43].nic.mac1609_4 SNIRLostPackets 6520
scalar World.node[43].nic.mac1609_4 RXTXLostPackets 817
scalar World.node[43].nic.mac1609_4 TotalLostPackets 7337
scalar World.node[43].nic.mac1609_4 DroppedPacketsInMac 0
scalar World.node[43].nic.mac1609_4 TooLittleTime 0
scalar World.node[43].nic.mac1609_4 TimesIntoBackoff 577
scalar World.node[43].nic.mac1609_4 SlotsBackoff 4400
scalar World.node[43].nic.mac1609_4 NumInternalContention 0
scalar World.node[43].nic.mac1609_4 totalBusyTime 3.072643364779
scalar World.node[58].appl.middleware.CaService #cam_sent 354
scalar World.node[58].appl.middleware.ExampleService #full_proofs 0
scalar World.node[58].appl.middleware.ExampleService #half_proofs 2
scalar World.node[58].appl.middleware.ExampleService #failed_proofs 0
scalar World.node[58].appl.middleware.ExampleService #loc_proof_send 55
scalar World.node[58].nic.phy80211p busyTime 0.01789928205128
scalar World.node[58].nic.mac1609_4 ReceivedUnicastPackets 0
scalar World.node[58].nic.mac1609_4 ReceivedBroadcasts 9848
scalar World.node[58].nic.mac1609_4 SentPackets 409
scalar World.node[58].nic.mac1609_4 SentAcknowledgements 0
scalar World.node[58].nic.mac1609_4 SNIRLostPackets 3497
scalar World.node[58].nic.mac1609_4 RXTXLostPackets 781
scalar World.node[58].nic.mac1609_4 TotalLostPackets 4278
scalar World.node[58].nic.mac1609_4 DroppedPacketsInMac 0
scalar World.node[58].nic.mac1609_4 TooLittleTime 0
scalar World.node[58].nic.mac1609_4 TimesIntoBackoff 423
scalar World.node[58].nic.mac1609_4 SlotsBackoff 3090
scalar World.node[58].nic.mac1609_4 NumInternalContention 0
scalar World.node[58].nic.mac1609_4 totalBusyTime 2.041580005911
scalar World.node[17].appl.middleware.CaService #cam_sent 773
scalar World.node[17].appl.middleware.ExampleService #full_proofs 0
scalar World.node[17].appl.middleware.ExampleService #half_proofs 5
scalar World.node[17].appl.middleware.ExampleService #failed_proofs 0
scalar World.node[17].appl.middleware.ExampleService #loc_proof_send 135
scalar World.node[17].nic.phy80211p busyTime 0.015099162162166
scalar World.node[17].nic.mac1609_4 ReceivedUnicastPackets 0
scalar World.node[17].nic.mac1609_4 ReceivedBroadcasts 24788
scalar World.node[17].nic.mac1609_4 SentPackets 908
scalar World.node[17].nic.mac1609_4 SentAcknowledgements 0
scalar World.node[17].nic.mac1609_4 SNIRLostPackets 3602
scalar World.node[17].nic.mac1609_4 RXTXLostPackets 1270
scalar World.node[17].nic.mac1609_4 TotalLostPackets 4872
scalar World.node[17].nic.mac1609_4 DroppedPacketsInMac 0
scalar World.node[17].nic.mac1609_4 TooLittleTime 0
scalar World.node[17].nic.mac1609_4 TimesIntoBackoff 915
scalar World.node[17].nic.mac1609_4 SlotsBackoff 6879
scalar World.node[17].nic.mac1609_4 NumInternalContention 0
scalar World.node[17].nic.mac1609_4 totalBusyTime 4.385113504393
scalar World.node[59].appl.middleware.CaService #cam_sent 342
scalar World.node[59].appl.middleware.ExampleService #full_proofs 0
scalar World.node[59].appl.middleware.ExampleService #half_proofs 2
scalar World.node[59].appl.middleware.ExampleService #failed_proofs 0
scalar World.node[59].appl.middleware.ExampleService #loc_proof_send 64
scalar World.node[59].nic.phy80211p busyTime 0.017910956521737
scalar World.node[59].nic.mac1609_4 ReceivedUnicastPackets 0
scalar World.node[59].nic.mac1609_4 ReceivedBroadcasts 11609
scalar World.node[59].nic.mac1609_4 SentPackets 406
scalar World.node[59].nic.mac1609_4 SentAcknowledgements 0
scalar World.node[59].nic.mac1609_4 SNIRLostPackets 1555
scalar World.node[59].nic.mac1609_4 RXTXLostPackets 773
scalar World.node[59].nic.mac1609_4 TotalLostPackets 2328
scalar World.node[59].nic.mac1609_4 DroppedPacketsInMac 0
scalar World.node[59].nic.mac1609_4 TooLittleTime 0
scalar World.node[59].nic.mac1609_4 TimesIntoBackoff 419
scalar World.node[59].nic.mac1609_4 SlotsBackoff 3227
scalar World.node[59].nic.mac1609_4 NumInternalContention 0
scalar World.node[59].nic.mac1609_4 totalBusyTime 2.004768384345
scalar World.node[47].appl.middleware.CaService #cam_sent 462
scalar World.node[47].appl.middleware.ExampleService #full_proofs 0
scalar World.node[47].appl.middleware.ExampleService #half_proofs 3
scalar World.node[47].appl.middleware.ExampleService #failed_proofs 0
scalar World.node[47].appl.middleware.ExampleService #loc_proof_send 90
scalar World.node[47].nic.phy80211p busyTime 0.017560184971098
scalar World.node[47].nic.mac1609_4 ReceivedUnicastPackets 0
scalar World.node[47].nic.mac1609_4 ReceivedBroadcasts 16187
scalar World.node[47].nic.mac1609_4 SentPackets 552
scalar World.node[47].nic.mac1609_4 SentAcknowledgements 0
scalar World.node[47].nic.mac1609_4 SNIRLostPackets 3142
scalar World.node[47].nic.mac1609_4 RXTXLostPackets 1191
scalar World.node[47].nic.mac1609_4 TotalLostPackets 4333
scalar World.node[47].nic.mac1609_4 DroppedPacketsInMac 0
scalar World.node[47].nic.mac1609_4 TooLittleTime 0
scalar World.node[47].nic.mac1609_4 TimesIntoBackoff 569
scalar World.node[47].nic.mac1609_4 SlotsBackoff 4374
scalar World.node[47].nic.mac1609_4 NumInternalContention 0
scalar World.node[47].nic.mac1609_4 totalBusyTime 2.980338138874
scalar World.node[49].appl.middleware.CaService #cam_sent 506
scalar World.node[49].appl.middleware.ExampleService #full_proofs 0
scalar World.node[49].appl.middleware.ExampleService #half_proofs 3
scalar World.node[49].appl.middleware.ExampleService #failed_proofs 0
scalar World.node[49].appl.middleware.ExampleService #loc_proof_send 94
scalar World.node[49].nic.phy80211p busyTime 0.01776525443787
scalar World.node[49].nic.mac1609_4 ReceivedUnicastPackets 0
scalar World.node[49].nic.mac1609_4 ReceivedBroadcasts 16366
scalar World.node[49].nic.mac1609_4 SentPackets 600
scalar World.node[49].nic.mac1609_4 SentAcknowledgements 0
scalar World.node[49].nic.mac1609_4 SNIRLostPackets 2791
scalar World.node[49].nic.mac1609_4 RXTXLostPackets 1120
scalar World.node[49].nic.mac1609_4 TotalLostPackets 3911
scalar World.node[49].nic.mac1609_4 DroppedPacketsInMac 0
scalar World.node[49].nic.mac1609_4 TooLittleTime 0
scalar World.node[49].nic.mac1609_4 TimesIntoBackoff 894
scalar World.node[49].nic.mac1609_4 SlotsBackoff 6776
scalar World.node[49].nic.mac1609_4 NumInternalContention 0
scalar World.node[49].nic.mac1609_4 totalBusyTime 2.930371134297
scalar World.node[55].appl.middleware.CaService #cam_sent 408
scalar World.node[55].appl.middleware.ExampleService #full_proofs 0
scalar World.node[55].appl.middleware.ExampleService #half_proofs 2
scalar World.node[55].appl.middleware.ExampleService #failed_proofs 1
scalar World.node[55].appl.middleware.ExampleService #loc_proof_send 88
scalar World.node[55].nic.phy80211p busyTime 0.018004853333333
scalar World.node[55].nic.mac1609_4 ReceivedUnicastPackets 0
scalar World.node[55].nic.mac1609_4 ReceivedBroadcasts 15476
scalar World.node[55].nic.mac1609_4 SentPackets 496
scalar World.node[55].nic.mac1609_4 SentAcknowledgements 0
scalar World.node[55].nic.mac1609_4 SNIRLostPackets 1744
scalar World.node[55].nic.mac1609_4 RXTXLostPackets 1226
scalar World.node[55].nic.mac1609_4 TotalLostPackets 2970
scalar World.node[55].nic.mac1609_4 DroppedPacketsInMac 0
scalar World.node[55].nic.mac1609_4 TooLittleTime 0
scalar World.node[55].nic.mac1609_4 TimesIntoBackoff 514
scalar World.node[55].nic.mac1609_4 SlotsBackoff 3754
scalar World.node[55].nic.mac1609_4 NumInternalContention 0
scalar World.node[55].nic.mac1609_4 totalBusyTime 2.653531785632
scalar World.node[41].appl.middleware.CaService #cam_sent 591
scalar World.node[41].appl.middleware.ExampleService #full_proofs 0
scalar World.node[41].appl.middleware.ExampleService #half_proofs 3
scalar World.node[41].appl.middleware.ExampleService #failed_proofs 0
scalar World.node[41].appl.middleware.ExampleService #loc_proof_send 102
scalar World.node[41].nic.phy80211p busyTime 0.017516732394367
scalar World.node[41].nic.mac1609_4 ReceivedUnicastPackets 0
scalar World.node[41].nic.mac1609_4 ReceivedBroadcasts 17595
scalar World.node[41].nic.mac1609_4 SentPackets 693
scalar World.node[41].nic.mac1609_4 SentAcknowledgements 0
scalar World.node[41].nic.mac1609_4 SNIRLostPackets 6197
scalar World.node[41].nic.mac1609_4 RXTXLostPackets 1331
scalar World.node[41].nic.mac1609_4 TotalLostPackets 7528
scalar World.node[41].nic.mac1609_4 DroppedPacketsInMac 0
scalar World.node[41].nic.mac1609_4 TooLittleTime 0
scalar World.node[41].nic.mac1609_4 TimesIntoBackoff 714
scalar World.node[41].nic.mac1609_4 SlotsBackoff 5422
scalar World.node[41].nic.mac1609_4 NumInternalContention 0
scalar World.node[41].nic.mac1609_4 totalBusyTime 3.647200843424
scalar World.node[34].appl.middleware.CaService #cam_sent 685
scalar World.node[34].appl.middleware.ExampleService #full_proofs 0
scalar World.node[34].appl.middleware.ExampleService #half_proofs 3
scalar World.node[34].appl.middleware.ExampleService #failed_proofs 1
scalar World.node[34].appl.middleware.ExampleService #loc_proof_send 126
scalar World.node[34].nic.phy80211p busyTime 0.017084709677422
scalar World.node[34].nic.mac1609_4 ReceivedUnicastPackets 0
scalar World.node[34].nic.mac1609_4 ReceivedBroadcasts 22272
scalar World.node[34].nic.mac1609_4 SentPackets 811
scalar World.node[34].nic.mac1609_4 SentAcknowledgements 0
scalar World.node[34].nic.mac1609_4 SNIRLostPackets 4667
scalar World.node[34].nic.mac1609_4 RXTXLostPackets 1733
scalar World.node[34].nic.mac1609_4 TotalLostPackets 6400
scalar World.node[34].nic.mac1609_4 DroppedPacketsInMac 0
scalar World.node[34].nic.mac1609_4 TooLittleTime 0
scalar World.node[34].nic.mac1609_4 TimesIntoBackoff 837
scalar World.node[34].nic.mac1609_4 SlotsBackoff 6177
scalar World.node[34].nic.mac1609_4 NumInternalContention 0
scalar World.node[34].nic.mac1609_4 totalBusyTime 4.167031989111
scalar World.node[60].appl.middleware.CaService #cam_sent 337
scalar World.node[60].appl.middleware.ExampleService #full_proofs 0
scalar World.node[60].appl.middleware.ExampleService #half_proofs 1
scalar World.node[60].appl.middleware.ExampleService #failed_proofs 1
scalar World.node[60].appl.middleware.ExampleService #loc_proof_send 74
scalar World.node[60].nic.phy80211p busyTime 0.018379942028985
scalar World.node[60].nic.mac1609_4 ReceivedUnicastPackets 0
scalar World.node[60].nic.mac1609_4 ReceivedBroadcasts 13711
scalar World.node[60].nic.mac1609_4 SentPackets 411
scalar World.node[60].nic.mac1609_4 SentAcknowledgements 0
scalar World.node[60].nic.mac1609_4 SNIRLostPackets 2385
scalar World.node[60].nic.mac1609_4 RXTXLostPackets 1277
scalar World.node[60].nic.mac1609_4 TotalLostPackets 3662
scalar World.node[60].nic.mac1609_4 DroppedPacketsInMac 0
scalar World.node[60].nic.mac1609_4 TooLittleTime 0
scalar World.node[60].nic.mac1609_4 TimesIntoBackoff 426
scalar World.node[60].nic.mac1609_4 SlotsBackoff 3160
scalar World.node[60].nic.mac1609_4 NumInternalContention 0
scalar World.node[60].nic.mac1609_4 totalBusyTime 2.480627886327
scalar World.node[42].appl.middleware.CaService #cam_sent 413
scalar World.node[42].appl.middleware.ExampleService #full_proofs 0
scalar World.node[42].appl.middleware.ExampleService #half_proofs 3
scalar World.node[42].appl.middleware.ExampleService #failed_proofs 0
scalar World.node[42].appl.middleware.ExampleService #loc_proof_send 99
scalar World.node[42].nic.phy80211p busyTime 0.017820146788992
scalar World.node[42].nic.mac1609_4 ReceivedUnicastPackets 0
scalar World.node[42].nic.mac1609_4 ReceivedBroadcasts 18874
scalar World.node[42].nic.mac1609_4 SentPackets 512
scalar World.node[42].nic.mac1609_4 SentAcknowledgements 0
scalar World.node[42].nic.mac1609_4 SNIRLostPackets 5793
scalar World.node[42].nic.mac1609_4 RXTXLostPackets 1601
scalar World.node[42].nic.mac1609_4 TotalLostPackets 7394
scalar World.node[42].nic.mac1609_4 DroppedPacketsInMac 0
scalar World.node[42].nic.mac1609_4 TooLittleTime 0
scalar World.node[42].nic.mac1609_4 TimesIntoBackoff 519
scalar World.node[42].nic.mac1609_4 SlotsBackoff 3852
scalar World.node[42].nic.mac1609_4 NumInternalContention 0
scalar World.node[42].nic.mac1609_4 totalBusyTime 3.773434908581
scalar World.node[72].appl.middleware.CaService #cam_sent 284
scalar World.node[72].appl.middleware.ExampleService #full_proofs 0
scalar World.node[72].appl.middleware.ExampleService #half_proofs 1
scalar World.node[72].appl.middleware.ExampleService #failed_proofs 0
scalar World.node[72].appl.middleware.ExampleService #loc_proof_send 52
scalar World.node[72].nic.phy80211p busyTime 0.019388461538459
scalar World.node[72].nic.mac1609_4 ReceivedUnicastPackets 0
scalar World.node[72].nic.mac1609_4 ReceivedBroadcasts 9656
scalar World.node[72].nic.mac1609_4 SentPackets 336
scalar World.node[72].nic.mac1609_4 SentAcknowledgements 0
scalar World.node[72].nic.mac1609_4 SNIRLostPackets 3164
scalar World.node[72].nic.mac1609_4 RXTXLostPackets 895
scalar World.node[72].nic.mac1609_4 TotalLostPackets 4059
scalar World.node[72].nic.mac1609_4 DroppedPacketsInMac 0
scalar World.node[72].nic.mac1609_4 TooLittleTime 0
scalar World.node[72].nic.mac1609_4 TimesIntoBackoff 344
scalar World.node[72].nic.mac1609_4 SlotsBackoff 2676
scalar World.node[72].nic.mac1609_4 NumInternalContention 0
scalar World.node[72].nic.mac1609_4 totalBusyTime 1.964457070368
scalar World.node[29].appl.middleware.CaService #cam_sent 752
scalar World.node[29].appl.middleware.ExampleService #full_proofs 0
scalar World.node[29].appl.middleware.ExampleService #half_proofs 5
scalar World.node[29].appl.middleware.ExampleService #failed_proofs 0
scalar World.node[29].appl.middleware.ExampleService #loc_proof_send 139
scalar World.node[29].nic.phy80211p busyTime 0.017175483870973
scalar World.node[29].nic.mac1609_4 ReceivedUnicastPackets 0
scalar World.node[29].nic.mac1609_4 ReceivedBroadcasts 26471
scalar World.node[29].nic.mac1609_4 SentPackets 891
scalar World.node[29].nic.mac1609_4 SentAcknowledgements 0
scalar World.node[29].nic.mac1609_4 SNIRLostPackets 3993
scalar World.node[29].nic.mac1609_4 RXTXLostPackets 1639
scalar World.node[29].nic.mac1609_4 TotalLostPackets 5632
scalar World.node[29].nic.mac1609_4 DroppedPacketsInMac 0
scalar World.node[29].nic.mac1609_4 TooLittleTime 0
scalar World.node[29].nic.mac1609_4 TimesIntoBackoff 910
scalar World.node[29].nic.mac1609_4 SlotsBackoff 7013
scalar World.node[29].nic.mac1609_4 NumInternalContention 0
scalar World.node[29].nic.mac1609_4 totalBusyTime 4.689735292945
scalar World.node[46].appl.middleware.CaService #cam_sent 548
scalar World.node[46].appl.middleware.ExampleService #full_proofs 0
scalar World.node[46].appl.middleware.ExampleService #half_proofs 3
scalar World.node[46].appl.middleware.ExampleService #failed_proofs 0
scalar World.node[46].appl.middleware.ExampleService #loc_proof_send 113
scalar World.node[46].nic.phy80211p busyTime 0.018111210762334
scalar World.node[46].nic.mac1609_4 ReceivedUnicastPackets 0
scalar World.node[46].nic.mac1609_4 ReceivedBroadcasts 21777
scalar World.node[46].nic.mac1609_4 SentPackets 661
scalar World.node[46].nic.mac1609_4 SentAcknowledgements 0
scalar World.node[46].nic.mac1609_4 SNIRLostPackets 3762
scalar World.node[46].nic.mac1609_4 RXTXLostPackets 1996
scalar World.node[46].nic.mac1609_4 TotalLostPackets 5758
scalar World.node[46].nic.mac1609_4 DroppedPacketsInMac 0
scalar World.node[46].nic.mac1609_4 TooLittleTime 0
scalar World.node[46].nic.mac1609_4 TimesIntoBackoff 778
scalar World.node[46].nic.mac1609_4 SlotsBackoff 5804
scalar World.node[46].nic.mac1609_4 NumInternalContention 0
scalar World.node[46].nic.mac1609_4 totalBusyTime 3.979722823145
scalar World.node[51].appl.middleware.CaService #cam_sent 552
scalar World.node[51].appl.middleware.ExampleService #full_proofs 0
scalar World.node[51].appl.middleware.ExampleService #half_proofs 4
scalar World.node[51].appl.middleware.ExampleService #failed_proofs 0
scalar World.node[51].appl.middleware.ExampleService #loc_proof_send 109
scalar World.node[51].nic.phy80211p busyTime 0.018435223300972
scalar World.node[51].nic.mac1609_4 ReceivedUnicastPackets 0
scalar World.node[51].nic.mac1609_4 ReceivedBroadcasts 20276
scalar World.node[51].nic.mac1609_4 SentPackets 661
scalar World.node[51].nic.mac1609_4 SentAcknowledgements 0
scalar World.node[51].nic.mac1609_4 SNIRLostPackets 3864
scalar World.node[51].nic.mac1609_4 RXTXLostPackets 1760
scalar World.node[51].nic.mac1609_4 TotalLostPackets 5624
scalar World.node[51].nic.mac1609_4 DroppedPacketsInMac 0
scalar World.node[51].nic.mac1609_4 TooLittleTime 0
scalar World.node[51].nic.mac1609_4 TimesIntoBackoff 684
scalar World.node[51].nic.mac1609_4 SlotsBackoff 5069
scalar World.node[51].nic.mac1609_4 NumInternalContention 0
scalar World.node[51].nic.mac1609_4 totalBusyTime 3.713924583839
scalar World.node[81].appl.middleware.CaService #cam_sent 229
scalar World.node[81].appl.middleware.ExampleService #full_proofs 0
scalar World.node[81].appl.middleware.ExampleService #half_proofs 1
scalar World.node[81].appl.middleware.ExampleService #failed_proofs 0
scalar World.node[81].appl.middleware.ExampleService #loc_proof_send 46
scalar World.node[81].nic.phy80211p busyTime 0.020366741573031
scalar World.node[81].nic.mac1609_4 ReceivedUnicastPackets 0
scalar World.node[81].nic.mac1609_4 ReceivedBroadcasts 9654
scalar World.node[81].nic.mac1609_4 SentPackets 275
scalar World.node[81].nic.mac1609_4 SentAcknowledgements 0
scalar World.node[81].nic.mac1609_4 SNIRLostPackets 1864
scalar World.node[81].nic.mac1609_4 RXTXLostPackets 647
scalar World.node[81].nic.mac1609_4 TotalLostPackets 2511
scalar World.node[81].nic.mac1609_4 DroppedPacketsInMac 0
scalar World.node[81].nic.mac1609_4 TooLittleTime 0
scalar World.node[81].nic.mac1609_4 TimesIntoBackoff 276
scalar World.node[81].nic.mac1609_4 SlotsBackoff 1968
scalar World.node[81].nic.mac1609_4 NumInternalContention 0
scalar World.node[81].nic.mac1609_4 totalBusyTime 1.740094081641
scalar World.node[78].appl.middleware.CaService #cam_sent 307
scalar World.node[78].appl.middleware.ExampleService #full_proofs 0
scalar World.node[78].appl.middleware.ExampleService #half_proofs 2
scalar World.node[78].appl.middleware.ExampleService #failed_proofs 0
scalar World.node[78].appl.middleware.ExampleService #loc_proof_send 56
scalar World.node[78].nic.phy80211p busyTime 0.019994642201832
scalar World.node[78].nic.mac1609_4 ReceivedUnicastPackets 0
scalar World.node[78].nic.mac1609_4 ReceivedBroadcasts 11274
scalar World.node[78].nic.mac1609_4 SentPackets 363
scalar World.node[78].nic.mac1609_4 SentAcknowledgements 0
scalar World.node[78].nic.mac1609_4 SNIRLostPackets 2585
scalar World.node[78].nic.mac1609_4 RXTXLostPackets 959
scalar World.node[78].nic.mac1609_4 TotalLostPackets 3544
scalar World.node[78].nic.mac1609_4 DroppedPacketsInMac 0
scalar World.node[78].nic.mac1609_4 TooLittleTime 0
scalar World.node[78].nic.mac1609_4 TimesIntoBackoff 372
scalar World.node[78].nic.mac1609_4 SlotsBackoff 2900
scalar World.node[78].nic.mac1609_4 NumInternalContention 0
scalar World.node[78].nic.mac1609_4 totalBusyTime 2.114494741784
scalar World.node[44].appl.middleware.CaService #cam_sent 630
scalar World.node[44].appl.middleware.ExampleService #full_proofs 0
scalar World.node[44].appl.middleware.ExampleService #half_proofs 4
scalar World.node[44].appl.middleware.ExampleService #failed_proofs 0
scalar World.node[44].appl.middleware.ExampleService #loc_proof_send 138
scalar World.node[44].nic.phy80211p busyTime 0.018673836575882
scalar World.node[44].nic.mac1609_4 ReceivedUnicastPackets 0
scalar World.node[44].nic.mac1609_4 ReceivedBroadcasts 26628
scalar World.node[44].nic.mac1609_4 SentPackets 768
scalar World.node[44].nic.mac1609_4 SentAcknowledgements 0
scalar World.node[44].nic.mac1609_4 SNIRLostPackets 3935
scalar World.node[44].nic.mac1609_4 RXTXLostPackets 1826
scalar World.node[44].nic.mac1609_4 TotalLostPackets 5761
scalar World.node[44].nic.mac1609_4 DroppedPacketsInMac 0
scalar World.node[44].nic.mac1609_4 TooLittleTime 0
scalar World.node[44].nic.mac1609_4 TimesIntoBackoff 788
scalar World.node[44].nic.mac1609_4 SlotsBackoff 5900
scalar World.node[44].nic.mac1609_4 NumInternalContention 0
scalar World.node[44].nic.mac1609_4 totalBusyTime 4.642673342746
scalar World.node[65].appl.middleware.CaService #cam_sent 466
scalar World.node[65].appl.middleware.ExampleService #full_proofs 0
scalar World.node[65].appl.middleware.ExampleService #half_proofs 3
scalar World.node[65].appl.middleware.ExampleService #failed_proofs 0
scalar World.node[65].appl.middleware.ExampleService #loc_proof_send 87
scalar World.node[65].nic.phy80211p busyTime 0.019423000000001
scalar World.node[65].nic.mac1609_4 ReceivedUnicastPackets 0
scalar World.node[65].nic.mac1609_4 ReceivedBroadcasts 16671
scalar World.node[65].nic.mac1609_4 SentPackets 553
scalar World.node[65].nic.mac1609_4 SentAcknowledgements 0
scalar World.node[65].nic.mac1609_4 SNIRLostPackets 5144
scalar World.node[65].nic.mac1609_4 RXTXLostPackets 1537
scalar World.node[65].nic.mac1609_4 TotalLostPackets 6681
scalar World.node[65].nic.mac1609_4 DroppedPacketsInMac 0
scalar World.node[65].nic.mac1609_4 TooLittleTime 0
scalar World.node[65].nic.mac1609_4 TimesIntoBackoff 567
scalar World.node[65].nic.mac1609_4 SlotsBackoff 4422
scalar World.node[65].nic.mac1609_4 NumInternalContention 0
scalar World.node[65].nic.mac1609_4 totalBusyTime 3.301867794519
scalar World.node[66].appl.middleware.CaService #cam_sent 516
scalar World.node[66].appl.middleware.ExampleService #full_proofs 0
scalar World.node[66].appl.middleware.ExampleService #half_proofs 3
scalar World.node[66].appl.middleware.ExampleService #failed_proofs 0
scalar World.node[66].appl.middleware.ExampleService #loc_proof_send 102
scalar World.node[66].nic.phy80211p busyTime 0.019244000000001
scalar World.node[66].nic.mac1609_4 ReceivedUnicastPackets 0
scalar World.node[66].nic.mac1609_4 ReceivedBroadcasts 18833
scalar World.node[66].nic.mac1609_4 SentPackets 618
scalar World.node[66].nic.mac1609_4 SentAcknowledgements 0
scalar World.node[66].nic.mac1609_4 SNIRLostPackets 3680
scalar World.node[66].nic.mac1609_4 RXTXLostPackets 1975
scalar World.node[66].nic.mac1609_4 TotalLostPackets 5655
scalar World.node[66].nic.mac1609_4 DroppedPacketsInMac 0
scalar World.node[66].nic.mac1609_4 TooLittleTime 0
scalar World.node[66].nic.mac1609_4 TimesIntoBackoff 634
scalar World.node[66].nic.mac1609_4 SlotsBackoff 4679
scalar World.node[66].nic.mac1609_4 NumInternalContention 0
scalar World.node[66].nic.mac1609_4 totalBusyTime 3.465399157634
scalar World.node[61].appl.middleware.CaService #cam_sent 509
scalar World.node[61].appl.middleware.ExampleService #full_proofs 0
scalar World.node[61].appl.middleware.ExampleService #half_proofs 3
scalar World.node[61].appl.middleware.ExampleService #failed_proofs 0
scalar World.node[61].appl.middleware.ExampleService #loc_proof_send 112
scalar World.node[61].nic.phy80211p busyTime 0.019297418719213
scalar World.node[61].nic.mac1609_4 ReceivedUnicastPackets 0
scalar World.node[61].nic.mac1609_4 ReceivedBroadcasts 22171
scalar World.node[61].nic.mac1609_4 SentPackets 621
scalar World.node[61].nic.mac1609_4 SentAcknowledgements 0
scalar World.node[61].nic.mac1609_4 SNIRLostPackets 2772
scalar World.node[61].nic.mac1609_4 RXTXLostPackets 1725
scalar World.node[61].nic.mac1609_4 TotalLostPackets 4497
scalar World.node[61].nic.mac1609_4 DroppedPacketsInMac 0
scalar World.node[61].nic.mac1609_4 TooLittleTime 0
scalar World.node[61].nic.mac1609_4 TimesIntoBackoff 632
scalar World.node[61].nic.mac1609_4 SlotsBackoff 4798
scalar World.node[61].nic.mac1609_4 NumInternalContention 0
scalar World.node[61].nic.mac1609_4 totalBusyTime 3.778676479465
scalar World.node[74].appl.middleware.CaService #cam_sent 351
scalar World.node[74].appl.middleware.ExampleService #full_proofs 0
scalar World.node[74].appl.middleware.ExampleService #half_proofs 2
scalar World.node[74].appl.middleware.ExampleService #failed_proofs 0
scalar World.node[74].appl.middleware.ExampleService #loc_proof_send 89
scalar World.node[74].nic.phy80211p busyTime 0.019891275167785
scalar World.node[74].nic.mac1609_4 ReceivedUnicastPackets 0
scalar World.node[74].nic.mac1609_4 ReceivedBroadcasts 16780
scalar World.node[74].nic.mac1609_4 SentPackets 440
[...]
scalar World.node[886].appl.middleware.CaService #cam_sent 639
scalar World.node[886].appl.middleware.ExampleService #full_proofs 0
scalar World.node[886].appl.middleware.ExampleService #half_proofs 6
scalar World.node[886].appl.middleware.ExampleService #failed_proofs 0
scalar World.node[886].appl.middleware.ExampleService #loc_proof_send 209
scalar World.node[886].nic.phy80211p busyTime 0.019024692913402
scalar World.node[886].nic.mac1609_4 ReceivedUnicastPackets 0
scalar World.node[886].nic.mac1609_4 ReceivedBroadcasts 37519
scalar World.node[886].nic.mac1609_4 SentPackets 848
scalar World.node[886].nic.mac1609_4 SentAcknowledgements 0
scalar World.node[886].nic.mac1609_4 SNIRLostPackets 8807
scalar World.node[886].nic.mac1609_4 RXTXLostPackets 4200
scalar World.node[886].nic.mac1609_4 TotalLostPackets 13007
scalar World.node[886].nic.mac1609_4 DroppedPacketsInMac 0
scalar World.node[886].nic.mac1609_4 TooLittleTime 0
scalar World.node[886].nic.mac1609_4 TimesIntoBackoff 1012
scalar World.node[886].nic.mac1609_4 SlotsBackoff 7472
scalar World.node[886].nic.mac1609_4 NumInternalContention 0
scalar World.node[886].nic.mac1609_4 totalBusyTime 6.94546888216
scalar World.node[921].appl.middleware.CaService #cam_sent 648
scalar World.node[921].appl.middleware.ExampleService #full_proofs 0
scalar World.node[921].appl.middleware.ExampleService #half_proofs 4
scalar World.node[921].appl.middleware.ExampleService #failed_proofs 0
scalar World.node[921].appl.middleware.ExampleService #loc_proof_send 87
scalar World.node[921].nic.phy80211p busyTime 0.015365714285715
scalar World.node[921].nic.mac1609_4 ReceivedUnicastPackets 0
scalar World.node[921].nic.mac1609_4 ReceivedBroadcasts 13893
scalar World.node[921].nic.mac1609_4 SentPackets 735
scalar World.node[921].nic.mac1609_4 SentAcknowledgements 0
scalar World.node[921].nic.mac1609_4 SNIRLostPackets 10349
scalar World.node[921].nic.mac1609_4 RXTXLostPackets 954
scalar World.node[921].nic.mac1609_4 TotalLostPackets 11303
scalar World.node[921].nic.mac1609_4 DroppedPacketsInMac 0
scalar World.node[921].nic.mac1609_4 TooLittleTime 0
scalar World.node[921].nic.mac1609_4 TimesIntoBackoff 742
scalar World.node[921].nic.mac1609_4 SlotsBackoff 5614
scalar World.node[921].nic.mac1609_4 NumInternalContention 0
scalar World.node[921].nic.mac1609_4 totalBusyTime 3.597920108474
scalar World.node[916].appl.middleware.CaService #cam_sent 640
scalar World.node[916].appl.middleware.ExampleService #full_proofs 0
scalar World.node[916].appl.middleware.ExampleService #half_proofs 5
scalar World.node[916].appl.middleware.ExampleService #failed_proofs 0
scalar World.node[916].appl.middleware.ExampleService #loc_proof_send 113
scalar World.node[916].nic.phy80211p busyTime 0.015673249070634
scalar World.node[916].nic.mac1609_4 ReceivedUnicastPackets 0
scalar World.node[916].nic.mac1609_4 ReceivedBroadcasts 20205
scalar World.node[916].nic.mac1609_4 SentPackets 753
scalar World.node[916].nic.mac1609_4 SentAcknowledgements 0
scalar World.node[916].nic.mac1609_4 SNIRLostPackets 6833
scalar World.node[916].nic.mac1609_4 RXTXLostPackets 1634
scalar World.node[916].nic.mac1609_4 TotalLostPackets 8467
scalar World.node[916].nic.mac1609_4 DroppedPacketsInMac 0
scalar World.node[916].nic.mac1609_4 TooLittleTime 0
scalar World.node[916].nic.mac1609_4 TimesIntoBackoff 774
scalar World.node[916].nic.mac1609_4 SlotsBackoff 5855
scalar World.node[916].nic.mac1609_4 NumInternalContention 0
scalar World.node[916].nic.mac1609_4 totalBusyTime 4.045180909168
scalar World.node[940].appl.middleware.CaService #cam_sent 546
scalar World.node[940].appl.middleware.ExampleService #full_proofs 0
scalar World.node[940].appl.middleware.ExampleService #half_proofs 3
scalar World.node[940].appl.middleware.ExampleService #failed_proofs 0
scalar World.node[940].appl.middleware.ExampleService #loc_proof_send 74
scalar World.node[940].nic.phy80211p busyTime 0.011922170212765
scalar World.node[940].nic.mac1609_4 ReceivedUnicastPackets 0
scalar World.node[940].nic.mac1609_4 ReceivedBroadcasts 12203
scalar World.node[940].nic.mac1609_4 SentPackets 620
scalar World.node[940].nic.mac1609_4 SentAcknowledgements 0
scalar World.node[940].nic.mac1609_4 SNIRLostPackets 2112
scalar World.node[940].nic.mac1609_4 RXTXLostPackets 774
scalar World.node[940].nic.mac1609_4 TotalLostPackets 2886
scalar World.node[940].nic.mac1609_4 DroppedPacketsInMac 0
scalar World.node[940].nic.mac1609_4 TooLittleTime 0
scalar World.node[940].nic.mac1609_4 TimesIntoBackoff 633
scalar World.node[940].nic.mac1609_4 SlotsBackoff 4768
scalar World.node[940].nic.mac1609_4 NumInternalContention 0
scalar World.node[940].nic.mac1609_4 totalBusyTime 2.212597357067
scalar World.node[939].appl.middleware.CaService #cam_sent 483
scalar World.node[939].appl.middleware.ExampleService #full_proofs 0
scalar World.node[939].appl.middleware.ExampleService #half_proofs 3
scalar World.node[939].appl.middleware.ExampleService #failed_proofs 0
scalar World.node[939].appl.middleware.ExampleService #loc_proof_send 63
scalar World.node[939].nic.phy80211p busyTime 0.012013388601035
scalar World.node[939].nic.mac1609_4 ReceivedUnicastPackets 0
scalar World.node[939].nic.mac1609_4 ReceivedBroadcasts 10445
scalar World.node[939].nic.mac1609_4 SentPackets 546
scalar World.node[939].nic.mac1609_4 SentAcknowledgements 0
scalar World.node[939].nic.mac1609_4 SNIRLostPackets 4351
scalar World.node[939].nic.mac1609_4 RXTXLostPackets 755
scalar World.node[939].nic.mac1609_4 TotalLostPackets 5106
scalar World.node[939].nic.mac1609_4 DroppedPacketsInMac 0
scalar World.node[939].nic.mac1609_4 TooLittleTime 0
scalar World.node[939].nic.mac1609_4 TimesIntoBackoff 561
scalar World.node[939].nic.mac1609_4 SlotsBackoff 4160
scalar World.node[939].nic.mac1609_4 NumInternalContention 0
scalar World.node[939].nic.mac1609_4 totalBusyTime 2.272890607563
scalar World.node[888].appl.middleware.CaService #cam_sent 955
scalar World.node[888].appl.middleware.ExampleService #full_proofs 0
scalar World.node[888].appl.middleware.ExampleService #half_proofs 7
scalar World.node[888].appl.middleware.ExampleService #failed_proofs 0
scalar World.node[888].appl.middleware.ExampleService #loc_proof_send 212
scalar World.node[888].nic.phy80211p busyTime 0.018064920000015
scalar World.node[888].nic.mac1609_4 ReceivedUnicastPackets 0
scalar World.node[888].nic.mac1609_4 ReceivedBroadcasts 37492
scalar World.node[888].nic.mac1609_4 SentPackets 1167
scalar World.node[888].nic.mac1609_4 SentAcknowledgements 0
scalar World.node[888].nic.mac1609_4 SNIRLostPackets 8865
scalar World.node[888].nic.mac1609_4 RXTXLostPackets 3473
scalar World.node[888].nic.mac1609_4 TotalLostPackets 12338
scalar World.node[888].nic.mac1609_4 DroppedPacketsInMac 0
scalar World.node[888].nic.mac1609_4 TooLittleTime 0
scalar World.node[888].nic.mac1609_4 TimesIntoBackoff 1255
scalar World.node[888].nic.mac1609_4 SlotsBackoff 9274
scalar World.node[888].nic.mac1609_4 NumInternalContention 0
scalar World.node[888].nic.mac1609_4 totalBusyTime 6.919076236487
scalar World.node[896].appl.middleware.CaService #cam_sent 691
scalar World.node[896].appl.middleware.ExampleService #full_proofs 0
scalar World.node[896].appl.middleware.ExampleService #half_proofs 5
scalar World.node[896].appl.middleware.ExampleService #failed_proofs 1
scalar World.node[896].appl.middleware.ExampleService #loc_proof_send 207
scalar World.node[896].nic.phy80211p busyTime 0.016982724324336
scalar World.node[896].nic.mac1609_4 ReceivedUnicastPackets 0
scalar World.node[896].nic.mac1609_4 ReceivedBroadcasts 34711
scalar World.node[896].nic.mac1609_4 SentPackets 897
scalar World.node[896].nic.mac1609_4 SentAcknowledgements 0
scalar World.node[896].nic.mac1609_4 SNIRLostPackets 5344
scalar World.node[896].nic.mac1609_4 RXTXLostPackets 3569
scalar World.node[896].nic.mac1609_4 TotalLostPackets 8913
scalar World.node[896].nic.mac1609_4 DroppedPacketsInMac 0
scalar World.node[896].nic.mac1609_4 TooLittleTime 0
scalar World.node[896].nic.mac1609_4 TimesIntoBackoff 922
scalar World.node[896].nic.mac1609_4 SlotsBackoff 7232
scalar World.node[896].nic.mac1609_4 NumInternalContention 0
scalar World.node[896].nic.mac1609_4 totalBusyTime 6.068812960629
scalar World.node[911].appl.middleware.CaService #cam_sent 707
scalar World.node[911].appl.middleware.ExampleService #full_proofs 0
scalar World.node[911].appl.middleware.ExampleService #half_proofs 5
scalar World.node[911].appl.middleware.ExampleService #failed_proofs 0
scalar World.node[911].appl.middleware.ExampleService #loc_proof_send 160
scalar World.node[911].nic.phy80211p busyTime 0.015227853658542
scalar World.node[911].nic.mac1609_4 ReceivedUnicastPackets 0
scalar World.node[911].nic.mac1609_4 ReceivedBroadcasts 27082
scalar World.node[911].nic.mac1609_4 SentPackets 867
scalar World.node[911].nic.mac1609_4 SentAcknowledgements 0
scalar World.node[911].nic.mac1609_4 SNIRLostPackets 4842
scalar World.node[911].nic.mac1609_4 RXTXLostPackets 2301
scalar World.node[911].nic.mac1609_4 TotalLostPackets 7143
scalar World.node[911].nic.mac1609_4 DroppedPacketsInMac 0
scalar World.node[911].nic.mac1609_4 TooLittleTime 0
scalar World.node[911].nic.mac1609_4 TimesIntoBackoff 891
scalar World.node[911].nic.mac1609_4 SlotsBackoff 6623
scalar World.node[911].nic.mac1609_4 NumInternalContention 0
scalar World.node[911].nic.mac1609_4 totalBusyTime 4.832492755716
scalar World.node[937].appl.middleware.CaService #cam_sent 525
scalar World.node[937].appl.middleware.ExampleService #full_proofs 0
scalar World.node[937].appl.middleware.ExampleService #half_proofs 4
scalar World.node[937].appl.middleware.ExampleService #failed_proofs 0
scalar World.node[937].appl.middleware.ExampleService #loc_proof_send 88
scalar World.node[937].nic.phy80211p busyTime 0.011135580786025
scalar World.node[937].nic.mac1609_4 ReceivedUnicastPackets 0
scalar World.node[937].nic.mac1609_4 ReceivedBroadcasts 14584
scalar World.node[937].nic.mac1609_4 SentPackets 613
scalar World.node[937].nic.mac1609_4 SentAcknowledgements 0
scalar World.node[937].nic.mac1609_4 SNIRLostPackets 1511
scalar World.node[937].nic.mac1609_4 RXTXLostPackets 1330
scalar World.node[937].nic.mac1609_4 TotalLostPackets 2841
scalar World.node[937].nic.mac1609_4 DroppedPacketsInMac 0
scalar World.node[937].nic.mac1609_4 TooLittleTime 0
scalar World.node[937].nic.mac1609_4 TimesIntoBackoff 642
scalar World.node[937].nic.mac1609_4 SlotsBackoff 4770
scalar World.node[937].nic.mac1609_4 NumInternalContention 0
scalar World.node[937].nic.mac1609_4 totalBusyTime 2.54767011366
scalar World.node[898].appl.middleware.CaService #cam_sent 962
scalar World.node[898].appl.middleware.ExampleService #full_proofs 0
scalar World.node[898].appl.middleware.ExampleService #half_proofs 7
scalar World.node[898].appl.middleware.ExampleService #failed_proofs 0
scalar World.node[898].appl.middleware.ExampleService #loc_proof_send 201
scalar World.node[898].nic.phy80211p busyTime 0.015259784313736
scalar World.node[898].nic.mac1609_4 ReceivedUnicastPackets 0
scalar World.node[898].nic.mac1609_4 ReceivedBroadcasts 34081
scalar World.node[898].nic.mac1609_4 SentPackets 1163
scalar World.node[898].nic.mac1609_4 SentAcknowledgements 0
scalar World.node[898].nic.mac1609_4 SNIRLostPackets 5485
scalar World.node[898].nic.mac1609_4 RXTXLostPackets 3628
scalar World.node[898].nic.mac1609_4 TotalLostPackets 9113
scalar World.node[898].nic.mac1609_4 DroppedPacketsInMac 0
scalar World.node[898].nic.mac1609_4 TooLittleTime 0
scalar World.node[898].nic.mac1609_4 TimesIntoBackoff 1195
scalar World.node[898].nic.mac1609_4 SlotsBackoff 9103
scalar World.node[898].nic.mac1609_4 NumInternalContention 0
scalar World.node[898].nic.mac1609_4 totalBusyTime 6.088913782185
scalar World.node[928].appl.middleware.CaService #cam_sent 744
scalar World.node[928].appl.middleware.ExampleService #full_proofs 0
scalar World.node[928].appl.middleware.ExampleService #half_proofs 5
scalar World.node[928].appl.middleware.ExampleService #failed_proofs 0
scalar World.node[928].appl.middleware.ExampleService #loc_proof_send 119
scalar World.node[928].nic.phy80211p busyTime 0.010935116564418
scalar World.node[928].nic.mac1609_4 ReceivedUnicastPackets 0
scalar World.node[928].nic.mac1609_4 ReceivedBroadcasts 18698
scalar World.node[928].nic.mac1609_4 SentPackets 863
scalar World.node[928].nic.mac1609_4 SentAcknowledgements 0
scalar World.node[928].nic.mac1609_4 SNIRLostPackets 4033
scalar World.node[928].nic.mac1609_4 RXTXLostPackets 1375
scalar World.node[928].nic.mac1609_4 TotalLostPackets 5408
scalar World.node[928].nic.mac1609_4 DroppedPacketsInMac 0
scalar World.node[928].nic.mac1609_4 TooLittleTime 0
scalar World.node[928].nic.mac1609_4 TimesIntoBackoff 882
scalar World.node[928].nic.mac1609_4 SlotsBackoff 6471
scalar World.node[928].nic.mac1609_4 NumInternalContention 0
scalar World.node[928].nic.mac1609_4 totalBusyTime 3.506545794044
scalar World.node[934].appl.middleware.CaService #cam_sent 586
scalar World.node[934].appl.middleware.ExampleService #full_proofs 0
scalar World.node[934].appl.middleware.ExampleService #half_proofs 5
scalar World.node[934].appl.middleware.ExampleService #failed_proofs 0
scalar World.node[934].appl.middleware.ExampleService #loc_proof_send 94
scalar World.node[934].nic.phy80211p busyTime 0.010365324675325
scalar World.node[934].nic.mac1609_4 ReceivedUnicastPackets 0
scalar World.node[934].nic.mac1609_4 ReceivedBroadcasts 16645
scalar World.node[934].nic.mac1609_4 SentPackets 680
scalar World.node[934].nic.mac1609_4 SentAcknowledgements 0
scalar World.node[934].nic.mac1609_4 SNIRLostPackets 3676
scalar World.node[934].nic.mac1609_4 RXTXLostPackets 1140
scalar World.node[934].nic.mac1609_4 TotalLostPackets 4816
scalar World.node[934].nic.mac1609_4 DroppedPacketsInMac 0
scalar World.node[934].nic.mac1609_4 TooLittleTime 0
scalar World.node[934].nic.mac1609_4 TimesIntoBackoff 702
scalar World.node[934].nic.mac1609_4 SlotsBackoff 5295
scalar World.node[934].nic.mac1609_4 NumInternalContention 0
scalar World.node[934].nic.mac1609_4 totalBusyTime 3.135259555848
scalar World.node[895].appl.middleware.CaService #cam_sent 1044
scalar World.node[895].appl.middleware.ExampleService #full_proofs 0
scalar World.node[895].appl.middleware.ExampleService #half_proofs 5
scalar World.node[895].appl.middleware.ExampleService #failed_proofs 3
scalar World.node[895].appl.middleware.ExampleService #loc_proof_send 202
scalar World.node[895].nic.phy80211p busyTime 0.014036408510649
scalar World.node[895].nic.mac1609_4 ReceivedUnicastPackets 0
scalar World.node[895].nic.mac1609_4 ReceivedBroadcasts 35504
scalar World.node[895].nic.mac1609_4 SentPackets 1246
scalar World.node[895].nic.mac1609_4 SentAcknowledgements 0
scalar World.node[895].nic.mac1609_4 SNIRLostPackets 6467
scalar World.node[895].nic.mac1609_4 RXTXLostPackets 3598
scalar World.node[895].nic.mac1609_4 TotalLostPackets 10065
scalar World.node[895].nic.mac1609_4 DroppedPacketsInMac 0
scalar World.node[895].nic.mac1609_4 TooLittleTime 0
scalar World.node[895].nic.mac1609_4 TimesIntoBackoff 1261
scalar World.node[895].nic.mac1609_4 SlotsBackoff 9244
scalar World.node[895].nic.mac1609_4 NumInternalContention 0
scalar World.node[895].nic.mac1609_4 totalBusyTime 6.430428193821
scalar World.node[914].appl.middleware.CaService #cam_sent 936
scalar World.node[914].appl.middleware.ExampleService #full_proofs 0
scalar World.node[914].appl.middleware.ExampleService #half_proofs 6
scalar World.node[914].appl.middleware.ExampleService #failed_proofs 0
scalar World.node[914].appl.middleware.ExampleService #loc_proof_send 149
scalar World.node[914].nic.phy80211p busyTime 0.011771343283586
scalar World.node[914].nic.mac1609_4 ReceivedUnicastPackets 0
scalar World.node[914].nic.mac1609_4 ReceivedBroadcasts 23732
scalar World.node[914].nic.mac1609_4 SentPackets 1085
scalar World.node[914].nic.mac1609_4 SentAcknowledgements 0
scalar World.node[914].nic.mac1609_4 SNIRLostPackets 6486
scalar World.node[914].nic.mac1609_4 RXTXLostPackets 1956
scalar World.node[914].nic.mac1609_4 TotalLostPackets 8442
scalar World.node[914].nic.mac1609_4 DroppedPacketsInMac 0
scalar World.node[914].nic.mac1609_4 TooLittleTime 0
scalar World.node[914].nic.mac1609_4 TimesIntoBackoff 1110
scalar World.node[914].nic.mac1609_4 SlotsBackoff 8573
scalar World.node[914].nic.mac1609_4 NumInternalContention 0
scalar World.node[914].nic.mac1609_4 totalBusyTime 4.62048374969
scalar World.node[919].appl.middleware.CaService #cam_sent 930
scalar World.node[919].appl.middleware.ExampleService #full_proofs 0
scalar World.node[919].appl.middleware.ExampleService #half_proofs 4
scalar World.node[919].appl.middleware.ExampleService #failed_proofs 3
scalar World.node[919].appl.middleware.ExampleService #loc_proof_send 147
scalar World.node[919].nic.phy80211p busyTime 0.01113087917738
scalar World.node[919].nic.mac1609_4 ReceivedUnicastPackets 0
scalar World.node[919].nic.mac1609_4 ReceivedBroadcasts 23923
scalar World.node[919].nic.mac1609_4 SentPackets 1077
scalar World.node[919].nic.mac1609_4 SentAcknowledgements 0
scalar World.node[919].nic.mac1609_4 SNIRLostPackets 3529
scalar World.node[919].nic.mac1609_4 RXTXLostPackets 2242
scalar World.node[919].nic.mac1609_4 TotalLostPackets 5771
scalar World.node[919].nic.mac1609_4 DroppedPacketsInMac 0
scalar World.node[919].nic.mac1609_4 TooLittleTime 0
scalar World.node[919].nic.mac1609_4 TimesIntoBackoff 1102
scalar World.node[919].nic.mac1609_4 SlotsBackoff 8194
scalar World.node[919].nic.mac1609_4 NumInternalContention 0
scalar World.node[919].nic.mac1609_4 totalBusyTime 4.305698487839
scalar World.node[922].appl.middleware.CaService #cam_sent 762
scalar World.node[922].appl.middleware.ExampleService #full_proofs 0
scalar World.node[922].appl.middleware.ExampleService #half_proofs 6
scalar World.node[922].appl.middleware.ExampleService #failed_proofs 0
scalar World.node[922].appl.middleware.ExampleService #loc_proof_send 131
scalar World.node[922].nic.phy80211p busyTime 0.010577766233767
scalar World.node[922].nic.mac1609_4 ReceivedUnicastPackets 0
scalar World.node[922].nic.mac1609_4 ReceivedBroadcasts 20777
scalar World.node[922].nic.mac1609_4 SentPackets 893
scalar World.node[922].nic.mac1609_4 SentAcknowledgements 0
scalar World.node[922].nic.mac1609_4 SNIRLostPackets 5084
scalar World.node[922].nic.mac1609_4 RXTXLostPackets 1761
scalar World.node[922].nic.mac1609_4 TotalLostPackets 6845
scalar World.node[922].nic.mac1609_4 DroppedPacketsInMac 0
scalar World.node[922].nic.mac1609_4 TooLittleTime 0
scalar World.node[922].nic.mac1609_4 TimesIntoBackoff 918
scalar World.node[922].nic.mac1609_4 SlotsBackoff 6899
scalar World.node[922].nic.mac1609_4 NumInternalContention 0
scalar World.node[922].nic.mac1609_4 totalBusyTime 4.018453031807
scalar World.node[941].appl.middleware.CaService #cam_sent 917
scalar World.node[941].appl.middleware.ExampleService #full_proofs 0
scalar World.node[941].appl.middleware.ExampleService #half_proofs 4
scalar World.node[941].appl.middleware.ExampleService #failed_proofs 1
scalar World.node[941].appl.middleware.ExampleService #loc_proof_send 96
scalar World.node[941].nic.phy80211p busyTime 0.0061334111922137
scalar World.node[941].nic.mac1609_4 ReceivedUnicastPackets 0
scalar World.node[941].nic.mac1609_4 ReceivedBroadcasts 14287
scalar World.node[941].nic.mac1609_4 SentPackets 1013
scalar World.node[941].nic.mac1609_4 SentAcknowledgements 0
scalar World.node[941].nic.mac1609_4 SNIRLostPackets 1633
scalar World.node[941].nic.mac1609_4 RXTXLostPackets 1156
scalar World.node[941].nic.mac1609_4 TotalLostPackets 2789
scalar World.node[941].nic.mac1609_4 DroppedPacketsInMac 0
scalar World.node[941].nic.mac1609_4 TooLittleTime 0
scalar World.node[941].nic.mac1609_4 TimesIntoBackoff 1025
scalar World.node[941].nic.mac1609_4 SlotsBackoff 7610
scalar World.node[941].nic.mac1609_4 NumInternalContention 0
scalar World.node[941].nic.mac1609_4 totalBusyTime 2.591751560497

