file 320320 1573987007                                          
version 2
run No_Obstacles-0-20191117-11:17:12-6118
attr configname No_Obstacles
attr datetime 20191117-11:17:12
attr experiment No_Obstacles
attr inifile omnetpp.ini
attr iterationvars $0=0
attr iterationvarsf 0-
attr measurement $0=0
attr network artery.veins.World
attr processid 6118
attr repetition 0
attr replication #0
attr resultdir results
attr runnumber 0
attr seedset 0
param *.traci.launcher.sumocfg "\"No_Obstacles/run.sumo.cfg\""
param *.node[*].nic.mac1609_4.txPower 20mW
param *.node[*].nic.phy80211p.decider "xmldoc(\"config.xml\")"
param *.node[*].nic.phy80211p.analogueModels "xmldoc(\"config.xml\")"
param *.node[*].applType "\"artery.veins.ApplicationLayer\""
param *.node[*].appl.middleware.updateInterval 0.1s
param *.node[*].appl.middleware.datetime "\"2013-06-01 12:35:00\""
param *.node[*].appl.middleware.services "xmldoc(\"services.xml\")"
param *.node[*].appl.middleware.ExampleService.DecisionLogic 0
param *.node[*].appl.middleware.ExampleService.NeighboringWindow 60
param *.traci.core.version -1
param *.traci.launcher.typename "\"PosixLauncher\""
param *.playgroundSizeX 4000m
param *.playgroundSizeY 4000m
param *.playgroundSizeZ 50m
param *.connectionManager.maxInterfDist 1500m
param *.connectionManager.sendDirect true
param *.connectionManager.coreDebug false

vector 0 World.node[2].appl.middleware.ExampleService proof_size ETV
vector 1 World.node[2].appl.middleware.ExampleService proof_requested ETV
vector 2 World.node[3].appl.middleware.ExampleService proof_size ETV
vector 3 World.node[3].appl.middleware.ExampleService proof_requested ETV
1	1586 25 6306 6306 20.021038256167 20.021038256167 1 2 2 2 4
0	1611 25 6306 6306 20.021038256167 20.021038256167 1 1 1 1 1
vector 4 World.node[4].appl.middleware.ExampleService proof_size ETV
vector 5 World.node[4].appl.middleware.ExampleService proof_requested ETV
3	1779 26 10079 10079 24.120392390206 24.120392390206 1 4 4 4 16
2	1805 26 10079 10079 24.120392390206 24.120392390206 1 4 4 4 16
vector 6 World.node[6].appl.middleware.ExampleService proof_size ETV
vector 7 World.node[6].appl.middleware.ExampleService proof_requested ETV
vector 8 World.node[10].appl.middleware.ExampleService proof_size ETV
vector 9 World.node[10].appl.middleware.ExampleService proof_requested ETV
vector 10 World.node[5].appl.middleware.ExampleService proof_size ETV
vector 11 World.node[5].appl.middleware.ExampleService proof_requested ETV
vector 12 World.node[0].appl.middleware.ExampleService proof_size ETV
vector 13 World.node[0].appl.middleware.ExampleService proof_requested ETV
vector 14 World.node[1].appl.middleware.ExampleService proof_size ETV
vector 15 World.node[1].appl.middleware.ExampleService proof_requested ETV
vector 16 World.node[8].appl.middleware.ExampleService proof_size ETV
vector 17 World.node[8].appl.middleware.ExampleService proof_requested ETV
vector 18 World.node[16].appl.middleware.ExampleService proof_size ETV
vector 19 World.node[16].appl.middleware.ExampleService proof_requested ETV
vector 20 World.node[12].appl.middleware.ExampleService proof_size ETV
vector 21 World.node[12].appl.middleware.ExampleService proof_requested ETV
vector 22 World.node[7].appl.middleware.ExampleService proof_size ETV
vector 23 World.node[7].appl.middleware.ExampleService proof_requested ETV
vector 24 World.node[13].appl.middleware.ExampleService proof_size ETV
vector 25 World.node[13].appl.middleware.ExampleService proof_requested ETV
vector 26 World.node[19].appl.middleware.ExampleService proof_size ETV
vector 27 World.node[19].appl.middleware.ExampleService proof_requested ETV
vector 28 World.node[11].appl.middleware.ExampleService proof_size ETV
vector 29 World.node[11].appl.middleware.ExampleService proof_requested ETV
vector 30 World.node[14].appl.middleware.ExampleService proof_size ETV
vector 31 World.node[14].appl.middleware.ExampleService proof_requested ETV
vector 32 World.node[20].appl.middleware.ExampleService proof_size ETV
vector 33 World.node[20].appl.middleware.ExampleService proof_requested ETV
vector 34 World.node[15].appl.middleware.ExampleService proof_size ETV
vector 35 World.node[15].appl.middleware.ExampleService proof_requested ETV
vector 36 World.node[18].appl.middleware.ExampleService proof_size ETV
vector 37 World.node[18].appl.middleware.ExampleService proof_requested ETV
vector 38 World.node[17].appl.middleware.ExampleService proof_size ETV
vector 39 World.node[17].appl.middleware.ExampleService proof_requested ETV
vector 40 World.node[24].appl.middleware.ExampleService proof_size ETV
vector 41 World.node[24].appl.middleware.ExampleService proof_requested ETV
13	4461 28 85066 85066 54.060276337038 54.060276337038 1 11 11 11 121
12	4489 27 85066 85066 54.060276337038 54.060276337038 1 8 8 8 64
15	4516 28 85169 85169 54.081216872646 54.081216872646 1 10 10 10 100
14	4544 27 85169 85169 54.081216872646 54.081216872646 1 0 0 0 0
vector 42 World.node[22].appl.middleware.ExampleService proof_size ETV
vector 43 World.node[22].appl.middleware.ExampleService proof_requested ETV
vector 44 World.node[25].appl.middleware.ExampleService proof_size ETV
vector 45 World.node[25].appl.middleware.ExampleService proof_requested ETV
vector 46 World.node[27].appl.middleware.ExampleService proof_size ETV
vector 47 World.node[27].appl.middleware.ExampleService proof_requested ETV
7	5012 55 38828 398637 41.049654812762 101.049654812762 2 9 19 28 442
6	5067 54 38828 398637 41.049654812762 101.049654812762 2 2 9 11 85
vector 48 World.node[30].appl.middleware.ExampleService proof_size ETV
vector 49 World.node[30].appl.middleware.ExampleService proof_requested ETV
27	5268 60 277217 1079786 87.055086417031 147.055086417031 2 17 28 45 1073
26	5328 59 277217 1079786 87.055086417031 147.055086417031 2 7 14 21 245
43	5387 30 491729 491729 109.068891713698 109.068891713698 1 21 21 21 441
42	5417 30 491729 491729 109.068891713698 109.068891713698 1 12 12 12 144
vector 50 World.node[26].appl.middleware.ExampleService proof_size ETV
vector 51 World.node[26].appl.middleware.ExampleService proof_requested ETV
vector 52 World.node[28].appl.middleware.ExampleService proof_size ETV
vector 53 World.node[28].appl.middleware.ExampleService proof_requested ETV
vector 54 World.node[31].appl.middleware.ExampleService proof_size ETV
vector 55 World.node[31].appl.middleware.ExampleService proof_requested ETV
vector 56 World.node[23].appl.middleware.ExampleService proof_size ETV
vector 57 World.node[23].appl.middleware.ExampleService proof_requested ETV
vector 58 World.node[29].appl.middleware.ExampleService proof_size ETV
vector 59 World.node[29].appl.middleware.ExampleService proof_requested ETV
25	6182 59 227217 942385 80.092676929082 140.092676929082 2 17 27 44 1018
24	6241 57 227217 942385 80.092676929082 140.092676929082 2 0 1 1 1
17	6298 59 140351 685371 65.024511604174 125.024511604174 2 13 22 35 653
16	6357 57 140351 685371 65.024511604174 125.024511604174 2 4 9 13 97
vector 60 World.node[37].appl.middleware.ExampleService proof_size ETV
vector 61 World.node[37].appl.middleware.ExampleService proof_requested ETV
vector 62 World.node[36].appl.middleware.ExampleService proof_size ETV
vector 63 World.node[36].appl.middleware.ExampleService proof_requested ETV
vector 64 World.node[32].appl.middleware.ExampleService proof_size ETV
vector 65 World.node[32].appl.middleware.ExampleService proof_requested ETV
vector 66 World.node[40].appl.middleware.ExampleService proof_size ETV
vector 67 World.node[40].appl.middleware.ExampleService proof_requested ETV
vector 68 World.node[33].appl.middleware.ExampleService proof_size ETV
vector 69 World.node[33].appl.middleware.ExampleService proof_requested ETV
vector 70 World.node[34].appl.middleware.ExampleService proof_size ETV
vector 71 World.node[34].appl.middleware.ExampleService proof_requested ETV
35	7296 61 434763 1424959 104.055954930792 164.055954930792 2 20 29 49 1241
34	7357 59 434763 1424959 104.055954930792 164.055954930792 2 5 6 11 61
19	7416 58 146194 702222 66.055771165411 126.055771165411 2 8 24 32 640
18	7474 58 146194 702222 66.055771165411 126.055771165411 2 1 13 14 170
67	7532 31 1576072 1576072 171.077823137678 171.077823137678 1 29 29 29 841
66	7563 31 1576072 1576072 171.077823137678 171.077823137678 1 11 11 11 121
31	7594 60 365591 1288653 98.007902179123 158.007902179123 2 19 29 48 1202
30	7654 60 365591 1288653 98.007902179123 158.007902179123 2 12 14 26 340
vector 72 World.node[44].appl.middleware.ExampleService proof_size ETV
vector 73 World.node[44].appl.middleware.ExampleService proof_requested ETV
vector 74 World.node[38].appl.middleware.ExampleService proof_size ETV
vector 75 World.node[38].appl.middleware.ExampleService proof_requested ETV
9	8008 85 41241 1377958 42.043227958516 162.043227958516 3 9 26 53 1081
8	8093 84 41241 1377958 42.043227958516 162.043227958516 3 3 12 21 189
vector 76 World.node[41].appl.middleware.ExampleService proof_size ETV
vector 77 World.node[41].appl.middleware.ExampleService proof_requested ETV
vector 78 World.node[48].appl.middleware.ExampleService proof_size ETV
vector 79 World.node[48].appl.middleware.ExampleService proof_requested ETV
23	8471 90 161188 1958780 69.053149428102 189.053149428102 3 12 33 70 1858
22	8561 89 161188 1958780 69.053149428102 189.053149428102 3 5 15 33 419
49	8650 62 1019456 2318887 144.063140496262 204.063140496262 2 25 27 52 1354
48	8712 61 1019456 2318887 144.063140496262 204.063140496262 2 9 13 22 250
vector 80 World.node[46].appl.middleware.ExampleService proof_size ETV
vector 81 World.node[46].appl.middleware.ExampleService proof_requested ETV
vector 82 World.node[43].appl.middleware.ExampleService proof_size ETV
vector 83 World.node[43].appl.middleware.ExampleService proof_requested ETV
vector 84 World.node[39].appl.middleware.ExampleService proof_size ETV
vector 85 World.node[39].appl.middleware.ExampleService proof_requested ETV
vector 86 World.node[42].appl.middleware.ExampleService proof_size ETV
vector 87 World.node[42].appl.middleware.ExampleService proof_requested ETV
vector 88 World.node[52].appl.middleware.ExampleService proof_size ETV
vector 89 World.node[52].appl.middleware.ExampleService proof_requested ETV
vector 90 World.node[54].appl.middleware.ExampleService proof_size ETV
vector 91 World.node[54].appl.middleware.ExampleService proof_requested ETV
47	9655 61 782859 1998289 131.001905909041 191.001905909041 2 24 32 56 1600
46	9716 61 782859 1998289 131.001905909041 191.001905909041 2 12 20 32 544
69	9777 31 1661089 1661089 176.041276706778 176.041276706778 1 28 28 28 784
68	9808 30 1661089 1661089 176.041276706778 176.041276706778 1 0 0 0 0
vector 92 World.node[45].appl.middleware.ExampleService proof_size ETV
vector 93 World.node[45].appl.middleware.ExampleService proof_requested ETV
55	9985 62 1178159 2535192 152.077565127308 212.077565127308 2 28 33 61 1873
54	10047 62 1178159 2535192 152.077565127308 212.077565127308 2 10 15 25 325
41	10109 92 455376 2940548 106.021355609945 226.021355609945 3 16 31 75 2001
40	10201 89 455376 2940548 106.021355609945 226.021355609945 3 2 8 18 132
21	10290 90 152265 1909520 67.034765173541 187.034765173541 3 11 32 67 1721
20	10380 89 152265 1909520 67.034765173541 187.034765173541 3 6 19 40 622
vector 94 World.node[49].appl.middleware.ExampleService proof_size ETV
vector 95 World.node[49].appl.middleware.ExampleService proof_requested ETV
vector 96 World.node[47].appl.middleware.ExampleService proof_size ETV
vector 97 World.node[47].appl.middleware.ExampleService proof_requested ETV
vector 98 World.node[50].appl.middleware.ExampleService proof_size ETV
vector 99 World.node[50].appl.middleware.ExampleService proof_requested ETV
51	10910 62 1165799 2507796 151.083777805883 211.083777805883 2 22 30 52 1384
50	10972 61 1165799 2507796 151.083777805883 211.083777805883 2 3 10 13 109
75	11033 31 2102116 2102116 195.044183569937 195.044183569937 1 31 31 31 961
74	11064 31 2102116 2102116 195.044183569937 195.044183569937 1 14 14 14 196
vector 100 World.node[62].appl.middleware.ExampleService proof_size ETV
vector 101 World.node[62].appl.middleware.ExampleService proof_requested ETV
vector 102 World.node[57].appl.middleware.ExampleService proof_size ETV
vector 103 World.node[57].appl.middleware.ExampleService proof_requested ETV
vector 104 World.node[51].appl.middleware.ExampleService proof_size ETV
vector 105 World.node[51].appl.middleware.ExampleService proof_requested ETV
vector 106 World.node[55].appl.middleware.ExampleService proof_size ETV
vector 107 World.node[55].appl.middleware.ExampleService proof_requested ETV
91	11691 31 2878176 2878176 224.058122046525 224.058122046525 1 36 36 36 1296
90	11722 31 2878176 2878176 224.058122046525 224.058122046525 1 18 18 18 324
33	11753 92 427173 2857140 103.088407234708 223.088407234708 3 19 32 80 2226
32	11845 92 427173 2857140 103.088407234708 223.088407234708 3 11 18 40 566
5	11937 144 21073 4323273 33.043214804772 273.043214804772 5 6 28 91 1981
4	12081 141 21073 4323273 33.043214804772 273.043214804772 5 1 11 30 244
vector 108 World.node[56].appl.middleware.ExampleService proof_size ETV
vector 109 World.node[56].appl.middleware.ExampleService proof_requested ETV
63	12371 62 1484732 2964774 167.028789686365 227.028789686365 2 31 33 64 2050
62	12433 60 1484732 2964774 167.028789686365 227.028789686365 2 1 9 10 82
vector 110 World.node[66].appl.middleware.ExampleService proof_size ETV
vector 111 World.node[66].appl.middleware.ExampleService proof_requested ETV
vector 112 World.node[58].appl.middleware.ExampleService proof_size ETV
vector 113 World.node[58].appl.middleware.ExampleService proof_requested ETV
45	12791 92 561818 3250653 116.019842461194 236.019842461194 3 14 36 82 2516
44	12883 90 561818 3250653 116.019842461194 236.019842461194 3 5 19 30 422
29	12973 122 298255 4201625 90.020122929243 270.020122929243 4 15 35 104 2908
28	13095 121 298255 4201625 90.020122929243 270.020122929243 4 6 11 38 378
37	13216 92 444377 2911351 105.012932859454 225.012932859454 3 19 36 85 2557
36	13308 91 444377 2911351 105.012932859454 225.012932859454 3 5 14 31 365
vector 114 World.node[59].appl.middleware.ExampleService proof_size ETV
vector 115 World.node[59].appl.middleware.ExampleService proof_requested ETV
vector 116 World.node[61].appl.middleware.ExampleService proof_size ETV
vector 117 World.node[61].appl.middleware.ExampleService proof_requested ETV
53	13697 90 1166195 4238314 151.08858463692 271.08858463692 3 20 32 73 1865
52	13787 88 1166195 4238314 151.08858463692 271.08858463692 3 3 10 18 134
vector 118 World.node[69].appl.middleware.ExampleService proof_size ETV
vector 119 World.node[69].appl.middleware.ExampleService proof_requested ETV
109	14024 31 4369898 4369898 274.08017380992 274.08017380992 1 37 37 37 1369
108	14055 31 4369898 4369898 274.08017380992 274.08017380992 1 14 14 14 196
vector 120 World.node[67].appl.middleware.ExampleService proof_size ETV
vector 121 World.node[67].appl.middleware.ExampleService proof_requested ETV
11	14235 151 79922 4959626 53.045309424866 293.045309424866 5 11 36 127 3619
10	14386 149 79922 4959626 53.045309424866 293.045309424866 5 6 17 55 691
vector 122 World.node[71].appl.middleware.ExampleService proof_size ETV
vector 123 World.node[71].appl.middleware.ExampleService proof_requested ETV
vector 124 World.node[64].appl.middleware.ExampleService proof_size ETV
vector 125 World.node[64].appl.middleware.ExampleService proof_requested ETV
vector 126 World.node[60].appl.middleware.ExampleService proof_size ETV
vector 127 World.node[60].appl.middleware.ExampleService proof_requested ETV
85	14982 62 2712812 4526401 219.004761280329 279.004761280329 2 34 36 70 2452
84	15044 62 2712812 4526401 219.004761280329 279.004761280329 2 15 19 34 586
121	15106 32 5023255 5023255 295.073366479529 295.073366479529 1 23 23 23 529
120	15138 31 5023255 5023255 295.073366479529 295.073366479529 1 4 4 4 16
vector 128 World.node[75].appl.middleware.ExampleService proof_size ETV
vector 129 World.node[75].appl.middleware.ExampleService proof_requested ETV
vector 130 World.node[65].appl.middleware.ExampleService proof_size ETV
vector 131 World.node[65].appl.middleware.ExampleService proof_requested ETV
vector 132 World.node[74].appl.middleware.ExampleService proof_size ETV
vector 133 World.node[74].appl.middleware.ExampleService proof_requested ETV
vector 134 World.node[79].appl.middleware.ExampleService proof_size ETV
vector 135 World.node[79].appl.middleware.ExampleService proof_requested ETV
103	15765 64 3906075 5728441 259.025730578322 319.025730578322 2 35 37 72 2594
102	15829 63 3906075 5728441 259.025730578322 319.025730578322 2 7 11 18 170
vector 136 World.node[76].appl.middleware.ExampleService proof_size ETV
vector 137 World.node[76].appl.middleware.ExampleService proof_requested ETV
vector 138 World.node[73].appl.middleware.ExampleService proof_size ETV
vector 139 World.node[73].appl.middleware.ExampleService proof_requested ETV
65	16190 93 1554919 4869528 170.068287000642 290.068287000642 3 29 34 95 3021
64	16283 93 1554919 4869528 170.068287000642 290.068287000642 3 12 18 47 757
vector 140 World.node[84].appl.middleware.ExampleService proof_size ETV
vector 141 World.node[84].appl.middleware.ExampleService proof_requested ETV
vector 142 World.node[78].appl.middleware.ExampleService proof_size ETV
vector 143 World.node[78].appl.middleware.ExampleService proof_requested ETV
135	16674 32 6237155 6237155 333.051707010483 333.051707010483 1 36 36 36 1296
134	16706 31 6237155 6237155 333.051707010483 333.051707010483 1 8 8 8 64
vector 144 World.node[72].appl.middleware.ExampleService proof_size ETV
vector 145 World.node[72].appl.middleware.ExampleService proof_requested ETV
57	16886 124 1217263 6281292 154.033881040686 334.033881040686 4 25 38 122 3822
56	17010 123 1217263 6281292 154.033881040686 334.033881040686 4 1 28 63 1371
vector 146 World.node[70].appl.middleware.ExampleService proof_size ETV
vector 147 World.node[70].appl.middleware.ExampleService proof_requested ETV
vector 148 World.node[85].appl.middleware.ExampleService proof_size ETV
vector 149 World.node[85].appl.middleware.ExampleService proof_requested ETV
vector 150 World.node[86].appl.middleware.ExampleService proof_size ETV
vector 151 World.node[86].appl.middleware.ExampleService proof_requested ETV
vector 152 World.node[83].appl.middleware.ExampleService proof_size ETV
vector 153 World.node[83].appl.middleware.ExampleService proof_requested ETV
vector 154 World.node[80].appl.middleware.ExampleService proof_size ETV
vector 155 World.node[80].appl.middleware.ExampleService proof_requested ETV
89	17878 93 2872134 6702057 224.000453064218 344.000453064218 3 32 39 105 3701
88	17971 93 2872134 6702057 224.000453064218 344.000453064218 3 13 15 43 619
61	18064 120 1483394 6832389 167.00584537189 347.00584537189 4 21 32 110 3090
60	18184 116 1483394 6832389 167.00584537189 347.00584537189 4 3 6 17 77
vector 156 World.node[87].appl.middleware.ExampleService proof_size ETV
vector 157 World.node[87].appl.middleware.ExampleService proof_requested ETV
83	18449 90 2591895 6286286 214.08686578034 334.08686578034 3 21 41 94 3146
82	18539 87 2591895 6286286 214.08686578034 334.08686578034 3 1 8 12 74
113	18626 64 4394230 6313384 275.037496719859 335.037496719859 2 25 34 59 1781
112	18690 63 4394230 6313384 275.037496719859 335.037496719859 2 8 23 31 593
39	18753 154 446370 6765410 105.083140984434 345.083140984434 5 19 41 156 5122
38	18907 151 446370 6765410 105.083140984434 345.083140984434 5 1 11 41 405
115	19058 62 4592531 6574700 281.04822931427 341.04822931427 2 34 42 76 2920
114	19120 62 4592531 6574700 281.04822931427 341.04822931427 2 16 17 33 545
97	19182 62 3558481 5350518 247.022120056464 307.022120056464 2 33 35 68 2314
96	19244 62 3558481 5350518 247.022120056464 307.022120056464 2 16 17 33 545
vector 158 World.node[91].appl.middleware.ExampleService proof_size ETV
vector 159 World.node[91].appl.middleware.ExampleService proof_requested ETV
vector 160 World.node[88].appl.middleware.ExampleService proof_size ETV
vector 161 World.node[88].appl.middleware.ExampleService proof_requested ETV
vector 162 World.node[77].appl.middleware.ExampleService proof_size ETV
vector 163 World.node[77].appl.middleware.ExampleService proof_requested ETV
95	19753 62 3531446 5322273 246.029212027369 306.029212027369 2 28 34 62 1940
94	19815 61 3531446 5322273 246.029212027369 306.029212027369 2 4 11 15 137
vector 164 World.node[82].appl.middleware.ExampleService proof_size ETV
vector 165 World.node[82].appl.middleware.ExampleService proof_requested ETV
107	20025 64 4091422 5961245 266.025607146765 326.025607146765 2 37 37 74 2738
106	20089 63 4091422 5961245 266.025607146765 326.025607146765 2 9 18 27 405
vector 166 World.node[94].appl.middleware.ExampleService proof_size ETV
vector 167 World.node[94].appl.middleware.ExampleService proof_requested ETV
77	20301 90 2174823 5700423 198.04949495194 318.04949495194 3 22 37 92 2942
76	20391 90 2174823 5700423 198.04949495194 318.04949495194 3 12 12 36 432
vector 168 World.node[92].appl.middleware.ExampleService proof_size ETV
vector 169 World.node[92].appl.middleware.ExampleService proof_requested ETV
vector 170 World.node[90].appl.middleware.ExampleService proof_size ETV
vector 171 World.node[90].appl.middleware.ExampleService proof_requested ETV
vector 172 World.node[81].appl.middleware.ExampleService proof_size ETV
vector 173 World.node[81].appl.middleware.ExampleService proof_requested ETV
71	20928 124 1732400 7308524 180.084494836139 360.084494836139 4 27 38 126 4034
70	21052 122 1732400 7308524 180.084494836139 360.084494836139 4 1 18 37 519
127	21174 62 5321242 7530382 306.01453974545 366.01453974545 2 31 38 69 2405
126	21236 61 5321242 7530382 306.01453974545 366.01453974545 2 9 10 19 181
87	21297 93 2815233 6624971 222.049344046903 342.049344046903 3 20 39 91 2945
86	21390 92 2815233 6624971 222.049344046903 342.049344046903 3 9 21 48 846
vector 174 World.node[95].appl.middleware.ExampleService proof_size ETV
vector 175 World.node[95].appl.middleware.ExampleService proof_requested ETV
vector 176 World.node[93].appl.middleware.ExampleService proof_size ETV
vector 177 World.node[93].appl.middleware.ExampleService proof_requested ETV
145	21780 32 6625877 6625877 342.054407957988 342.054407957988 1 37 37 37 1369
144	21812 31 6625877 6625877 342.054407957988 342.054407957988 1 2 2 2 4
59	21843 155 1257827 8876847 156.069300617836 396.069300617836 5 28 42 174 6178
58	21998 155 1257827 8876847 156.069300617836 396.069300617836 5 12 20 81 1355
vector 178 World.node[101].appl.middleware.ExampleService proof_size ETV
vector 179 World.node[101].appl.middleware.ExampleService proof_requested ETV
vector 180 World.node[99].appl.middleware.ExampleService proof_size ETV
vector 181 World.node[99].appl.middleware.ExampleService proof_requested ETV
vector 182 World.node[89].appl.middleware.ExampleService proof_size ETV
vector 183 World.node[89].appl.middleware.ExampleService proof_requested ETV
81	22602 124 2475450 8564584 210.004222729499 390.004222729499 4 29 39 142 5102
80	22726 123 2475450 8564584 210.004222729499 390.004222729499 4 9 13 45 515
105	22849 96 4049805 8335492 264.078031193838 384.078031193838 3 33 41 108 3926
104	22945 96 4049805 8335492 264.078031193838 384.078031193838 3 10 17 42 614
173	23041 32 8111817 8111817 379.043794596195 379.043794596195 1 40 40 40 1600
172	23073 32 8111817 8111817 379.043794596195 379.043794596195 1 23 23 23 529
143	23105 64 6487717 9001469 339.025222916505 399.025222916505 2 35 43 78 3074
142	23169 64 6487717 9001469 339.025222916505 399.025222916505 2 16 31 47 1217
vector 184 World.node[105].appl.middleware.ExampleService proof_size ETV
vector 185 World.node[105].appl.middleware.ExampleService proof_requested ETV
vector 186 World.node[106].appl.middleware.ExampleService proof_size ETV
vector 187 World.node[106].appl.middleware.ExampleService proof_requested ETV
vector 188 World.node[96].appl.middleware.ExampleService proof_size ETV
vector 189 World.node[96].appl.middleware.ExampleService proof_requested ETV
vector 190 World.node[98].appl.middleware.ExampleService proof_size ETV
vector 191 World.node[98].appl.middleware.ExampleService proof_requested ETV
vector 192 World.node[102].appl.middleware.ExampleService proof_size ETV
vector 193 World.node[102].appl.middleware.ExampleService proof_requested ETV
73	23984 156 2079841 10538087 194.056340697152 434.056340697152 5 31 45 190 7332
72	24140 153 2079841 10538087 194.056340697152 434.056340697152 5 0 20 49 725
131	24293 64 5757762 8154477 320.099581558094 380.099581558094 2 35 36 71 2521
130	24357 64 5757762 8154477 320.099581558094 380.099581558094 2 14 20 34 596
vector 194 World.node[100].appl.middleware.ExampleService proof_size ETV
vector 195 World.node[100].appl.middleware.ExampleService proof_requested ETV
vector 196 World.node[108].appl.middleware.ExampleService proof_size ETV
vector 197 World.node[108].appl.middleware.ExampleService proof_requested ETV
vector 198 World.node[97].appl.middleware.ExampleService proof_size ETV
vector 199 World.node[97].appl.middleware.ExampleService proof_requested ETV
vector 200 World.node[111].appl.middleware.ExampleService proof_size ETV
vector 201 World.node[111].appl.middleware.ExampleService proof_requested ETV
vector 202 World.node[103].appl.middleware.ExampleService proof_size ETV
vector 203 World.node[103].appl.middleware.ExampleService proof_requested ETV
vector 204 World.node[107].appl.middleware.ExampleService proof_size ETV
vector 205 World.node[107].appl.middleware.ExampleService proof_requested ETV
vector 206 World.node[113].appl.middleware.ExampleService proof_size ETV
vector 207 World.node[113].appl.middleware.ExampleService proof_requested ETV
111	25476 96 4392421 8812815 275.016889673751 395.016889673751 3 33 44 117 4625
110	25572 95 4392421 8812815 275.016889673751 395.016889673751 3 7 20 42 674
vector 208 World.node[114].appl.middleware.ExampleService proof_size ETV
vector 209 World.node[114].appl.middleware.ExampleService proof_requested ETV
vector 210 World.node[109].appl.middleware.ExampleService proof_size ETV
vector 211 World.node[109].appl.middleware.ExampleService proof_requested ETV
117	25969 96 4755626 9303738 286.085415701265 406.085415701265 3 34 44 112 4248
116	26065 96 4755626 9303738 286.085415701265 406.085415701265 3 15 19 52 910
133	26161 97 5936563 11065678 325.043550265394 445.043550265394 3 38 47 124 5174
132	26258 97 5936563 11065678 325.043550265394 445.043550265394 3 10 16 38 500
vector 212 World.node[110].appl.middleware.ExampleService proof_size ETV
vector 213 World.node[110].appl.middleware.ExampleService proof_requested ETV
vector 214 World.node[112].appl.middleware.ExampleService proof_size ETV
vector 215 World.node[112].appl.middleware.ExampleService proof_requested ETV
137	26657 97 6286003 11519277 334.083906671428 454.083906671428 3 35 47 125 5283
136	26754 97 6286003 11519277 334.083906671428 454.083906671428 3 13 24 59 1229
129	26851 97 5756425 10820524 320.070476348535 440.070476348535 3 37 44 123 5069
128	26948 96 5756425 10820524 320.070476348535 440.070476348535 3 6 27 57 1341
125	27044 96 5163444 9872190 300.073000011663 420.073000011663 3 33 42 114 4374
124	27140 94 5163444 9872190 300.073000011663 420.073000011663 3 0 18 18 324
123	27234 96 5161271 9869077 300.038923923485 420.038923923485 3 34 43 117 4605
122	27330 96 5161271 9869077 300.038923923485 420.038923923485 3 13 28 55 1149
149	27426 97 6707030 12091445 344.035833276389 464.035833276389 3 14 48 101 4021
148	27523 95 6707030 12091445 344.035833276389 464.035833276389 3 0 15 15 225
119	27618 121 4806175 12313592 288.0021765996 468.0021765996 4 33 44 154 5994
118	27739 121 4806175 12313592 288.0021765996 468.0021765996 4 15 21 67 1147
79	27860 156 2294262 10971037 203.066873398493 443.066873398493 5 13 40 152 5042
78	28016 154 2294262 10971037 203.066873398493 443.066873398493 5 3 17 49 591
vector 216 World.node[117].appl.middleware.ExampleService proof_size ETV
vector 217 World.node[117].appl.middleware.ExampleService proof_requested ETV
153	28321 94 6893901 12329907 348.09433129793 468.09433129793 3 29 47 118 4814
152	28415 93 6893901 12329907 348.09433129793 468.09433129793 3 0 10 20 200
167	28508 65 7734862 10379945 371.095530087105 431.095530087105 2 39 40 79 3121
166	28573 63 7734862 10379945 371.095530087105 431.095530087105 2 0 1 1 1
vector 218 World.node[116].appl.middleware.ExampleService proof_size ETV
vector 219 World.node[116].appl.middleware.ExampleService proof_requested ETV
vector 220 World.node[118].appl.middleware.ExampleService proof_size ETV
vector 221 World.node[118].appl.middleware.ExampleService proof_requested ETV
vector 222 World.node[123].appl.middleware.ExampleService proof_size ETV
vector 223 World.node[123].appl.middleware.ExampleService proof_requested ETV
203	29089 33 10813903 10813903 440.017185697216 440.017185697216 1 38 38 38 1444
202	29122 32 10813903 10813903 440.017185697216 440.017185697216 1 9 9 9 81
185	29154 66 10141627 13179823 426.048119154898 486.048119154898 2 30 44 74 2836
184	29220 66 10141627 13179823 426.048119154898 486.048119154898 2 13 18 31 493
201	29286 33 10772922 10772922 439.076882512611 439.076882512611 1 46 46 46 2116
200	29319 33 10772922 10772922 439.076882512611 439.076882512611 1 20 20 20 400
vector 224 World.node[115].appl.middleware.ExampleService proof_size ETV
vector 225 World.node[115].appl.middleware.ExampleService proof_requested ETV
99	29503 157 3669650 13389172 251.049210722721 491.049210722721 5 34 46 202 8274
98	29660 157 3669650 13389172 251.049210722721 491.049210722721 5 12 16 69 961
vector 226 World.node[121].appl.middleware.ExampleService proof_size ETV
vector 227 World.node[121].appl.middleware.ExampleService proof_requested ETV
197	29968 32 10677222 10677222 437.03609138045 437.03609138045 1 40 40 40 1600
196	30000 31 10677222 10677222 437.03609138045 437.03609138045 1 0 0 0 0
157	30031 97 7049786 12534869 352.054457791569 472.054457791569 3 40 45 127 5389
156	30128 97 7049786 12534869 352.054457791569 472.054457791569 3 11 14 39 513
161	30225 97 7375889 12993863 362.086494060187 482.086494060187 3 30 42 112 4264
160	30322 97 7375889 12993863 362.086494060187 482.086494060187 3 11 16 42 602
179	30419 65 9002724 11788893 399.040652872063 459.040652872063 2 44 46 90 4052
178	30484 65 9002724 11788893 399.040652872063 459.040652872063 2 16 17 33 545
139	30549 97 6286377 11519960 334.087000443228 454.087000443228 3 27 46 114 4526
138	30646 94 6286377 11519960 334.087000443228 454.087000443228 3 0 4 4 16
vector 228 World.node[126].appl.middleware.ExampleService proof_size ETV
vector 229 World.node[126].appl.middleware.ExampleService proof_requested ETV
vector 230 World.node[119].appl.middleware.ExampleService proof_size ETV
vector 231 World.node[119].appl.middleware.ExampleService proof_requested ETV
215	31042 33 11559603 11559603 455.061883208621 455.061883208621 1 46 46 46 2116
214	31075 33 11559603 11559603 455.061883208621 455.061883208621 1 35 35 35 1225
vector 232 World.node[131].appl.middleware.ExampleService proof_size ETV
vector 233 World.node[131].appl.middleware.ExampleService proof_requested ETV
vector 234 World.node[122].appl.middleware.ExampleService proof_size ETV
vector 235 World.node[122].appl.middleware.ExampleService proof_requested ETV
165	31410 98 7536633 13182300 366.075518341945 486.075518341945 3 27 39 103 3619
164	31508 98 7536633 13182300 366.075518341945 486.075518341945 3 12 16 43 625
205	31606 64 10921780 13798157 442.06424541662 502.06424541662 2 19 45 64 2386
204	31670 63 10921780 13798157 442.06424541662 502.06424541662 2 4 12 16 160
vector 236 World.node[120].appl.middleware.ExampleService proof_size ETV
vector 237 World.node[120].appl.middleware.ExampleService proof_requested ETV
101	31884 152 3850704 13624626 257.0259467036 497.0259467036 5 31 40 177 6315
100	32036 149 3850704 13624626 257.0259467036 497.0259467036 5 0 13 33 351
163	32185 98 7458662 13091168 364.030842801323 484.030842801323 3 37 43 120 4818
162	32283 98 7458662 13091168 364.030842801323 484.030842801323 3 10 24 51 965
vector 238 World.node[124].appl.middleware.ExampleService proof_size ETV
vector 239 World.node[124].appl.middleware.ExampleService proof_requested ETV
vector 240 World.node[125].appl.middleware.ExampleService proof_size ETV
vector 241 World.node[125].appl.middleware.ExampleService proof_requested ETV
221	32683 33 12933009 12933009 481.046114039049 481.046114039049 1 45 45 45 2025
220	32716 33 12933009 12933009 481.046114039049 481.046114039049 1 19 19 19 361
227	32749 33 13563474 13563474 495.019889863045 495.019889863045 1 35 35 35 1225
226	32782 32 13563474 13563474 495.019889863045 495.019889863045 1 7 7 7 49
vector 242 World.node[129].appl.middleware.ExampleService proof_size ETV
vector 243 World.node[129].appl.middleware.ExampleService proof_requested ETV
93	32965 188 3105539 14929415 231.054052307084 531.054052307084 6 33 43 230 8894
92	33153 188 3105539 14929415 231.054052307084 531.054052307084 6 14 21 106 1904
vector 244 World.node[128].appl.middleware.ExampleService proof_size ETV
vector 245 World.node[128].appl.middleware.ExampleService proof_requested ETV
vector 246 World.node[134].appl.middleware.ExampleService proof_size ETV
vector 247 World.node[134].appl.middleware.ExampleService proof_requested ETV
vector 248 World.node[127].appl.middleware.ExampleService proof_size ETV
vector 249 World.node[127].appl.middleware.ExampleService proof_requested ETV
187	33794 66 10230927 13271122 428.054193920875 488.054193920875 2 41 45 86 3706
186	33860 66 10230927 13271122 428.054193920875 488.054193920875 2 16 19 35 617
239	33926 33 14881750 14881750 530.039509174693 530.039509174693 1 40 40 40 1600
238	33959 32 14881750 14881750 530.039509174693 530.039509174693 1 2 2 2 4
151	33991 130 6837187 14767544 347.049698858242 527.049698858242 4 32 47 162 6678
150	34121 130 6837187 14767544 347.049698858242 527.049698858242 4 11 24 62 1066
vector 250 World.node[130].appl.middleware.ExampleService proof_size ETV
vector 251 World.node[130].appl.middleware.ExampleService proof_requested ETV
183	34402 98 9246209 14699476 405.008992029331 525.008992029331 3 41 49 134 6018
182	34500 98 9246209 14699476 405.008992029331 525.008992029331 3 14 30 62 1420
193	34598 66 10538082 13522594 434.052667097677 494.052667097677 2 42 47 89 3973
192	34664 66 10538082 13522594 434.052667097677 494.052667097677 2 16 18 34 580
159	34730 130 7353487 15357019 361.27106104848 544.080423974595 4 14 44 135 5109
158	34860 128 7353487 15357019 361.27106104848 544.080423974595 4 1 19 39 583
vector 252 World.node[141].appl.middleware.ExampleService proof_size ETV
vector 253 World.node[141].appl.middleware.ExampleService proof_requested ETV
235	35139 33 14369704 14369704 516.083783933846 516.083783933846 1 35 35 35 1225
234	35172 33 14369704 14369704 516.083783933846 516.083783933846 1 20 20 20 400
231	35205 33 14079036 14079036 509.075988605362 509.075988605362 1 40 40 40 1600
230	35238 33 14079036 14079036 509.075988605362 509.075988605362 1 19 19 19 361
vector 254 World.node[133].appl.middleware.ExampleService proof_size ETV
vector 255 World.node[133].appl.middleware.ExampleService proof_requested ETV
vector 256 World.node[137].appl.middleware.ExampleService proof_size ETV
vector 257 World.node[137].appl.middleware.ExampleService proof_requested ETV
155	35573 130 6967660 14878444 350.001818629308 530.001818629308 4 38 42 162 6572
154	35703 129 6967660 14878444 350.001818629308 530.001818629308 4 4 23 56 1006
vector 258 World.node[139].appl.middleware.ExampleService proof_size ETV
vector 259 World.node[139].appl.middleware.ExampleService proof_requested ETV
vector 260 World.node[144].appl.middleware.ExampleService proof_size ETV
vector 261 World.node[144].appl.middleware.ExampleService proof_requested ETV
vector 262 World.node[142].appl.middleware.ExampleService proof_size ETV
vector 263 World.node[142].appl.middleware.ExampleService proof_requested ETV
195	36285 99 10586029 15767310 435.030791294924 555.030791294924 3 33 46 117 4649
194	36384 99 10586029 15767310 435.030791294924 555.030791294924 3 12 14 38 484
vector 264 World.node[143].appl.middleware.ExampleService proof_size ETV
vector 265 World.node[143].appl.middleware.ExampleService proof_requested ETV
vector 266 World.node[140].appl.middleware.ExampleService proof_size ETV
vector 267 World.node[140].appl.middleware.ExampleService proof_requested ETV
249	36785 33 15214264 15214264 540.064156357222 540.064156357222 1 38 38 38 1444
248	36818 33 15214264 15214264 540.064156357222 540.064156357222 1 12 12 12 144
vector 268 World.node[132].appl.middleware.ExampleService proof_size ETV
vector 269 World.node[132].appl.middleware.ExampleService proof_requested ETV
229	37002 66 14039082 16216282 508.014380031917 568.014380031917 2 37 39 76 2890
228	37068 64 14039082 16216282 508.014380031917 568.014380031917 2 5 8 13 89
vector 270 World.node[135].appl.middleware.ExampleService proof_size ETV
vector 271 World.node[135].appl.middleware.ExampleService proof_requested ETV
217	37283 66 12568814 14990339 473.020490261633 533.020490261633 2 41 45 86 3706
216	37349 66 12568814 14990339 473.020490261633 533.020490261633 2 16 28 44 1040
vector 272 World.node[136].appl.middleware.ExampleService proof_size ETV
vector 273 World.node[136].appl.middleware.ExampleService proof_requested ETV
vector 274 World.node[147].appl.middleware.ExampleService proof_size ETV
vector 275 World.node[147].appl.middleware.ExampleService proof_requested ETV
271	37717 33 16521071 16521071 576.085950974864 576.085950974864 1 32 32 32 1024
270	37750 33 16521071 16521071 576.085950974864 576.085950974864 1 12 12 12 144
vector 276 World.node[148].appl.middleware.ExampleService proof_size ETV
vector 277 World.node[148].appl.middleware.ExampleService proof_requested ETV
vector 278 World.node[145].appl.middleware.ExampleService proof_size ETV
vector 279 World.node[145].appl.middleware.ExampleService proof_requested ETV
213	38085 99 11445412 16413132 453.045275296154 573.045275296154 3 34 46 115 4497
212	38184 97 11445412 16413132 453.045275296154 573.045275296154 3 0 11 20 202
141	38281 158 6445741 16582022 338.07353736693 578.07353736693 5 28 45 181 6705
140	38439 156 6445741 16582022 338.07353736693 578.07353736693 5 4 13 46 470
vector 280 World.node[149].appl.middleware.ExampleService proof_size ETV
vector 281 World.node[149].appl.middleware.ExampleService proof_requested ETV
vector 282 World.node[138].appl.middleware.ExampleService proof_size ETV
vector 283 World.node[138].appl.middleware.ExampleService proof_requested ETV
181	38897 131 9133618 16725214 402.077598286606 582.077598286606 4 19 47 142 5490
180	39028 130 9133618 16725214 402.077598286606 582.077598286606 4 7 30 70 1578
171	39158 131 8003960 15825643 377.019962060661 557.019962060661 4 34 43 154 6010
170	39289 129 8003960 15825643 377.019962060661 557.019962060661 4 4 17 40 490
237	39418 64 14398951 16546427 517.01177101261 577.01177101261 2 26 40 66 2276
236	39482 63 14398951 16546427 517.01177101261 577.01177101261 2 4 10 14 116
177	39545 131 8820754 16485296 395.081715248618 575.081715248618 4 36 47 161 6565
176	39676 129 8820754 16485296 395.081715248618 575.081715248618 4 1 30 47 1101
vector 284 World.node[150].appl.middleware.ExampleService proof_size ETV
vector 285 World.node[150].appl.middleware.ExampleService proof_requested ETV
189	39956 132 10278207 17781298 429.031840899889 609.031840899889 4 38 44 165 6837
188	40088 132 10278207 17781298 429.031840899889 609.031840899889 4 13 29 81 1783
199	40220 99 10679162 15832914 437.068281329097 557.068281329097 3 36 43 121 4909
198	40319 96 10679162 15832914 437.068281329097 557.068281329097 3 0 8 10 68
175	40415 131 8818570 16481123 395.069015022041 575.069015022041 4 38 45 162 6590
174	40546 130 8818570 16481123 395.069015022041 575.069015022041 4 0 28 65 1473
191	40676 99 10478922 15677714 433.008843115461 553.008843115461 3 34 44 118 4692
190	40775 96 10478922 15677714 433.008843115461 553.008843115461 3 6 6 18 108
219	40871 99 12701070 17246816 476.038936882257 596.038936882257 3 36 42 118 4660
218	40970 98 12701070 17246816 476.038936882257 596.038936882257 3 9 14 34 398
285	41068 33 17779127 17779127 609.006766036525 609.006766036525 1 39 39 39 1521
284	41101 33 17779127 17779127 609.006766036525 609.006766036525 1 18 18 18 324
vector 286 World.node[153].appl.middleware.ExampleService proof_size ETV
vector 287 World.node[153].appl.middleware.ExampleService proof_requested ETV
vector 288 World.node[146].appl.middleware.ExampleService proof_size ETV
vector 289 World.node[146].appl.middleware.ExampleService proof_requested ETV
251	41436 64 15323629 17535706 543.07049246016 603.07049246016 2 39 40 79 3121
250	41500 64 15323629 17535706 543.07049246016 603.07049246016 2 10 18 28 424
243	41564 66 15026857 17143403 534.003351440863 594.003351440863 2 37 38 75 2813
242	41630 66 15026857 17143403 534.003351440863 594.003351440863 2 10 16 26 356
vector 290 World.node[157].appl.middleware.ExampleService proof_size ETV
vector 291 World.node[157].appl.middleware.ExampleService proof_requested ETV
vector 292 World.node[156].appl.middleware.ExampleService proof_size ETV
vector 293 World.node[156].appl.middleware.ExampleService proof_requested ETV
169	41998 164 7960152 17989169 376.022920599277 616.022920599277 5 34 41 190 7258
168	42162 163 7960152 17989169 376.022920599277 616.022920599277 5 8 23 80 1404
vector 294 World.node[152].appl.middleware.ExampleService proof_size ETV
vector 295 World.node[152].appl.middleware.ExampleService proof_requested ETV
255	42476 64 15826999 18012034 557.02865405886 617.02865405886 2 34 38 72 2600
254	42540 64 15826999 18012034 557.02865405886 617.02865405886 2 15 18 33 549
vector 296 World.node[159].appl.middleware.ExampleService proof_size ETV
vector 297 World.node[159].appl.middleware.ExampleService proof_requested ETV
147	42755 163 6707028 16778091 344.035644653044 584.035644653044 5 23 49 193 7811
146	42918 162 6707028 16778091 344.035644653044 584.035644653044 5 7 17 65 907
vector 298 World.node[161].appl.middleware.ExampleService proof_size ETV
vector 299 World.node[161].appl.middleware.ExampleService proof_requested ETV
vector 300 World.node[163].appl.middleware.ExampleService proof_size ETV
vector 301 World.node[163].appl.middleware.ExampleService proof_requested ETV
vector 302 World.node[158].appl.middleware.ExampleService proof_size ETV
vector 303 World.node[158].appl.middleware.ExampleService proof_requested ETV
277	43533 66 16996298 18945361 590.092444048962 650.092444048962 2 35 40 75 2825
276	43599 66 16996298 18945361 590.092444048962 650.092444048962 2 15 19 34 586
207	43665 132 11063304 18246115 445.002562308242 625.002562308242 4 33 45 155 6079
206	43797 128 11063304 18246115 445.002562308242 625.002562308242 4 4 8 25 165
vector 304 World.node[167].appl.middleware.ExampleService proof_size ETV
vector 305 World.node[167].appl.middleware.ExampleService proof_requested ETV
vector 306 World.node[162].appl.middleware.ExampleService proof_size ETV
vector 307 World.node[162].appl.middleware.ExampleService proof_requested ETV
253	44227 66 15726550 17940360 554.093083216459 614.093083216459 2 32 40 72 2624
252	44293 66 15726550 17940360 554.093083216459 614.093083216459 2 15 15 30 450
vector 308 World.node[155].appl.middleware.ExampleService proof_size ETV
vector 309 World.node[155].appl.middleware.ExampleService proof_requested ETV
vector 310 World.node[166].appl.middleware.ExampleService proof_size ETV
vector 311 World.node[166].appl.middleware.ExampleService proof_requested ETV
299	44661 32 18814610 18814610 646.01744891589 646.01744891589 1 36 36 36 1296
298	44693 32 18814610 18814610 646.01744891589 646.01744891589 1 16 16 16 256
vector 312 World.node[160].appl.middleware.ExampleService proof_size ETV
vector 313 World.node[160].appl.middleware.ExampleService proof_requested ETV
vector 314 World.node[169].appl.middleware.ExampleService proof_size ETV
vector 315 World.node[169].appl.middleware.ExampleService proof_requested ETV
245	45027 99 15127229 19170414 537.050028130156 657.050028130156 3 36 38 110 4036
244	45126 98 15127229 19170414 537.050028130156 657.050028130156 3 3 23 37 659
259	45224 66 16014571 18172560 562.090134741133 622.090134741133 2 36 39 75 2817
258	45290 65 16014571 18172560 562.090134741133 622.090134741133 2 6 16 22 292
vector 316 World.node[170].appl.middleware.ExampleService proof_size ETV
vector 317 World.node[170].appl.middleware.ExampleService proof_requested ETV
vector 318 World.node[165].appl.middleware.ExampleService proof_size ETV
vector 319 World.node[165].appl.middleware.ExampleService proof_requested ETV
vector 320 World.node[173].appl.middleware.ExampleService proof_size ETV
vector 321 World.node[173].appl.middleware.ExampleService proof_requested ETV
223	45808 132 13124316 19418449 485.026887058932 665.026887058932 4 35 43 156 6124
222	45940 129 13124316 19418449 485.026887058932 665.026887058932 4 9 15 42 468
209	46069 164 11100654 20204154 446.040481015295 686.040481015295 5 9 40 161 5867
208	46233 164 11100654 20204154 446.040481015295 686.040481015295 5 4 32 98 2342
vector 322 World.node[164].appl.middleware.ExampleService proof_size ETV
vector 323 World.node[164].appl.middleware.ExampleService proof_requested ETV
257	46548 99 15935108 19919533 560.042273948342 680.042273948342 3 31 35 100 3342
256	46647 98 15935108 19919533 560.042273948342 680.042273948342 3 9 13 34 394
vector 324 World.node[177].appl.middleware.ExampleService proof_size ETV
vector 325 World.node[177].appl.middleware.ExampleService proof_requested ETV
295	46896 66 18468383 20581384 634.049424721673 694.049424721673 2 24 36 60 1872
294	46962 66 18468383 20581384 634.049424721673 694.049424721673 2 14 26 40 872
241	47028 99 14965367 19004009 532.043691058806 652.043691058806 3 36 40 113 4265
240	47127 98 14965367 19004009 532.043691058806 652.043691058806 3 9 16 37 481
275	47225 66 16781394 18756675 584.072063610889 644.072063610889 2 14 34 48 1352
274	47291 65 16781394 18756675 584.072063610889 644.072063610889 2 1 11 12 122
293	47356 64 18410540 20487020 632.00507100895 692.00507100895 2 28 39 67 2305
292	47420 63 18410540 20487020 632.00507100895 692.00507100895 2 8 23 31 593
vector 326 World.node[174].appl.middleware.ExampleService proof_size ETV
vector 327 World.node[174].appl.middleware.ExampleService proof_requested ETV
297	47634 66 18719586 20913020 643.041409018752 703.041409018752 2 33 35 68 2314
296	47700 65 18719586 20913020 643.041409018752 703.041409018752 2 7 11 18 170
287	47765 66 18194889 20069186 623.077751347912 683.077751347912 2 32 38 70 2468
286	47831 66 18194889 20069186 623.077751347912 683.077751347912 2 23 29 52 1370
247	47897 99 15161606 19200552 538.064065171801 658.064065171801 3 24 39 99 3393
246	47996 96 15161606 19200552 538.064065171801 658.064065171801 3 1 8 12 74
vector 328 World.node[168].appl.middleware.ExampleService proof_size ETV
vector 329 World.node[168].appl.middleware.ExampleService proof_requested ETV
211	48243 165 11101623 20205625 446.044576701405 686.044576701405 5 34 40 189 7173
210	48408 165 11101623 20205625 446.044576701405 686.044576701405 5 13 27 81 1461
273	48573 99 16776722 20938432 584.017012975249 704.017012975249 3 33 35 102 3470
272	48672 98 16776722 20938432 584.017012975249 704.017012975249 3 8 15 35 433
vector 330 World.node[171].appl.middleware.ExampleService proof_size ETV
vector 331 World.node[171].appl.middleware.ExampleService proof_requested ETV
vector 332 World.node[172].appl.middleware.ExampleService proof_size ETV
vector 333 World.node[172].appl.middleware.ExampleService proof_requested ETV
vector 334 World.node[176].appl.middleware.ExampleService proof_size ETV
vector 335 World.node[176].appl.middleware.ExampleService proof_requested ETV
vector 336 World.node[185].appl.middleware.ExampleService proof_size ETV
vector 337 World.node[185].appl.middleware.ExampleService proof_requested ETV
vector 338 World.node[178].appl.middleware.ExampleService proof_size ETV
vector 339 World.node[178].appl.middleware.ExampleService proof_requested ETV
vector 340 World.node[181].appl.middleware.ExampleService proof_size ETV
vector 341 World.node[181].appl.middleware.ExampleService proof_requested ETV
263	49676 99 16087152 20129842 564.070739548258 684.070739548258 3 34 39 110 4046
262	49775 97 16087152 20129842 564.070739548258 684.070739548258 3 7 32 48 1154
329	49872 33 21184538 21184538 711.091878135852 711.091878135852 1 36 36 36 1296
328	49905 33 21184538 21184538 711.091878135852 711.091878135852 1 14 14 14 196
vector 342 World.node[175].appl.middleware.ExampleService proof_size ETV
vector 343 World.node[175].appl.middleware.ExampleService proof_requested ETV
vector 344 World.node[184].appl.middleware.ExampleService proof_size ETV
vector 345 World.node[184].appl.middleware.ExampleService proof_requested ETV
283	50240 96 17325869 21386301 598.02308724469 718.02308724469 3 23 36 95 3121
282	50336 93 17325869 21386301 598.02308724469 718.02308724469 3 5 6 16 86
vector 346 World.node[187].appl.middleware.ExampleService proof_size ETV
vector 347 World.node[187].appl.middleware.ExampleService proof_requested ETV
267	50580 96 16363520 20493563 572.05068997487 692.05068997487 3 35 38 110 4038
266	50676 95 16363520 20493563 572.05068997487 692.05068997487 3 1 16 32 482
vector 348 World.node[179].appl.middleware.ExampleService proof_size ETV
vector 349 World.node[179].appl.middleware.ExampleService proof_requested ETV
289	50922 99 18195157 22375656 623.092506333068 743.092506333068 3 19 38 92 3030
288	51021 98 18195157 22375656 623.092506333068 743.092506333068 3 8 24 44 784
vector 350 World.node[180].appl.middleware.ExampleService proof_size ETV
vector 351 World.node[180].appl.middleware.ExampleService proof_requested ETV
vector 352 World.node[183].appl.middleware.ExampleService proof_size ETV
vector 353 World.node[183].appl.middleware.ExampleService proof_requested ETV
225	51421 165 13395210 21881985 491.077502301987 731.077502301987 5 35 45 196 7738
224	51586 162 13395210 21881985 491.077502301987 731.077502301987 5 0 23 46 814
vector 354 World.node[188].appl.middleware.ExampleService proof_size ETV
vector 355 World.node[188].appl.middleware.ExampleService proof_requested ETV
315	51899 66 19616064 21880534 671.071283219848 731.071283219848 2 35 36 71 2521
314	51965 65 19616064 21880534 671.071283219848 731.071283219848 2 1 12 13 145
vector 356 World.node[182].appl.middleware.ExampleService proof_size ETV
vector 357 World.node[182].appl.middleware.ExampleService proof_requested ETV
291	52181 99 18383018 22715690 631.078121898673 751.078121898673 3 35 41 115 4427
290	52280 97 18383018 22715690 631.078121898673 751.078121898673 3 6 12 27 261
vector 358 World.node[189].appl.middleware.ExampleService proof_size ETV
vector 359 World.node[189].appl.middleware.ExampleService proof_requested ETV
269	52528 132 16410340 22782425 573.017386668106 753.017386668106 4 34 41 154 5962
268	52660 131 16410340 22782425 573.017386668106 753.017386668106 4 7 16 52 726
323	52791 66 20535183 22787423 693.026654731645 753.026654731645 2 40 41 81 3281
322	52857 65 20535183 22787423 693.026654731645 753.026654731645 2 0 16 16 256
vector 360 World.node[186].appl.middleware.ExampleService proof_size ETV
vector 361 World.node[186].appl.middleware.ExampleService proof_requested ETV
265	53073 132 16190258 22531620 567.059857467306 747.059857467306 4 35 40 151 5715
264	53205 131 16190258 22531620 567.059857467306 747.059857467306 4 6 19 55 855
vector 362 World.node[200].appl.middleware.ExampleService proof_size ETV
vector 363 World.node[200].appl.middleware.ExampleService proof_requested ETV
321	53487 64 20131835 22411598 684.09079312298 744.09079312298 2 37 40 77 2969
320	53551 64 20131835 22411598 684.09079312298 744.09079312298 2 17 23 40 818
vector 364 World.node[190].appl.middleware.ExampleService proof_size ETV
vector 365 World.node[190].appl.middleware.ExampleService proof_requested ETV
vector 366 World.node[198].appl.middleware.ExampleService proof_size ETV
vector 367 World.node[198].appl.middleware.ExampleService proof_requested ETV
vector 368 World.node[194].appl.middleware.ExampleService proof_size ETV
vector 369 World.node[194].appl.middleware.ExampleService proof_requested ETV
vector 370 World.node[197].appl.middleware.ExampleService proof_size ETV
vector 371 World.node[197].appl.middleware.ExampleService proof_requested ETV
365	54219 33 23909237 23909237 781.015216277796 781.015216277796 1 39 39 39 1521
364	54252 32 23909237 23909237 781.015216277796 781.015216277796 1 7 7 7 49
325	54284 66 20647227 22905312 696.019558907999 756.019558907999 2 39 42 81 3285
324	54350 66 20647227 22905312 696.019558907999 756.019558907999 2 14 18 32 520
vector 372 World.node[196].appl.middleware.ExampleService proof_size ETV
vector 373 World.node[196].appl.middleware.ExampleService proof_requested ETV
303	54567 99 19001800 23492064 652.015132946032 772.015132946032 3 27 41 102 3566
302	54666 96 19001800 23492064 652.015132946032 772.015132946032 3 3 9 17 115
vector 374 World.node[199].appl.middleware.ExampleService proof_size ETV
vector 375 World.node[199].appl.middleware.ExampleService proof_requested ETV
vector 376 World.node[191].appl.middleware.ExampleService proof_size ETV
vector 377 World.node[191].appl.middleware.ExampleService proof_requested ETV
vector 378 World.node[193].appl.middleware.ExampleService proof_size ETV
vector 379 World.node[193].appl.middleware.ExampleService proof_requested ETV
vector 380 World.node[195].appl.middleware.ExampleService proof_size ETV
vector 381 World.node[195].appl.middleware.ExampleService proof_requested ETV
vector 382 World.node[192].appl.middleware.ExampleService proof_size ETV
vector 383 World.node[192].appl.middleware.ExampleService proof_requested ETV
261	55517 165 16015720 24683650 562.126046419167 802.026046419167 5 23 42 178 6566
260	55682 162 16015720 24683650 562.126046419167 802.026046419167 5 0 15 40 454
vector 384 World.node[204].appl.middleware.ExampleService proof_size ETV
vector 385 World.node[204].appl.middleware.ExampleService proof_requested ETV
307	55995 96 19228953 23818333 659.01645370631 779.01645370631 3 34 43 112 4230
306	56091 94 19228953 23818333 659.01645370631 779.01645370631 3 3 11 18 146
369	56185 32 24062822 24062822 785.03567577342 785.03567577342 1 38 38 38 1444
368	56217 31 24062822 24062822 785.03567577342 785.03567577342 1 0 0 0 0
vector 386 World.node[207].appl.middleware.ExampleService proof_size ETV
vector 387 World.node[207].appl.middleware.ExampleService proof_requested ETV
331	56399 66 21236304 23537366 713.033042440074 773.033042440074 2 31 41 72 2642
330	56465 65 21236304 23537366 713.033042440074 773.033042440074 2 7 11 18 170
305	56530 99 19109588 23639511 655.072183988593 775.072183988593 3 36 42 115 4429
304	56629 99 19109588 23639511 655.072183988593 775.072183988593 3 11 13 36 434
233	56728 198 14293179 25111255 514.176037948183 814.076037948183 6 18 43 215 8129
232	56926 196 14293179 25111255 514.176037948183 814.076037948183 6 0 26 75 1479
vector 388 World.node[202].appl.middleware.ExampleService proof_size ETV
vector 389 World.node[202].appl.middleware.ExampleService proof_requested ETV
363	57273 32 23861256 23861256 780.01571675702 780.01571675702 1 41 41 41 1681
362	57305 32 23861256 23861256 780.01571675702 780.01571675702 1 13 13 13 169
vector 390 World.node[210].appl.middleware.ExampleService proof_size ETV
vector 391 World.node[210].appl.middleware.ExampleService proof_requested ETV
343	57488 66 21878020 24298787 731.030653335806 791.030653335806 2 34 40 74 2756
342	57554 65 21878020 24298787 731.030653335806 791.030653335806 2 9 16 25 337
vector 392 World.node[206].appl.middleware.ExampleService proof_size ETV
vector 393 World.node[206].appl.middleware.ExampleService proof_requested ETV
vector 394 World.node[213].appl.middleware.ExampleService proof_size ETV
vector 395 World.node[213].appl.middleware.ExampleService proof_requested ETV
vector 396 World.node[209].appl.middleware.ExampleService proof_size ETV
vector 397 World.node[209].appl.middleware.ExampleService proof_requested ETV
327	58072 99 20881744 25469425 702.063509989134 822.063509989134 3 41 42 125 5209
326	58171 99 20881744 25469425 702.063509989134 822.063509989134 3 17 19 55 1011
vector 398 World.node[205].appl.middleware.ExampleService proof_size ETV
vector 399 World.node[205].appl.middleware.ExampleService proof_requested ETV
317	58421 99 19873522 24579267 679.019934137212 799.019934137212 3 19 41 98 3486
316	58520 97 19873522 24579267 679.019934137212 799.019934137212 3 2 13 23 237
vector 400 World.node[214].appl.middleware.ExampleService proof_size ETV
vector 401 World.node[214].appl.middleware.ExampleService proof_requested ETV
371	58768 33 24063125 24063125 785.041044609994 785.041044609994 1 42 42 42 1764
370	58801 32 24063125 24063125 785.041044609994 785.041044609994 1 2 2 2 4
vector 402 World.node[201].appl.middleware.ExampleService proof_size ETV
vector 403 World.node[201].appl.middleware.ExampleService proof_requested ETV
vector 404 World.node[211].appl.middleware.ExampleService proof_size ETV
vector 405 World.node[211].appl.middleware.ExampleService proof_requested ETV
vector 406 World.node[203].appl.middleware.ExampleService proof_size ETV
vector 407 World.node[203].appl.middleware.ExampleService proof_requested ETV
vector 408 World.node[208].appl.middleware.ExampleService proof_size ETV
vector 409 World.node[208].appl.middleware.ExampleService proof_requested ETV
vector 410 World.node[212].appl.middleware.ExampleService proof_size ETV
vector 411 World.node[212].appl.middleware.ExampleService proof_requested ETV
vector 412 World.node[216].appl.middleware.ExampleService proof_size ETV
vector 413 World.node[216].appl.middleware.ExampleService proof_requested ETV
349	59739 62 22448473 24784272 745.0060570003 805.0060570003 2 33 39 72 2610
348	59801 60 22448473 24784272 745.0060570003 805.0060570003 2 4 6 10 52
vector 414 World.node[217].appl.middleware.ExampleService proof_size ETV
vector 415 World.node[217].appl.middleware.ExampleService proof_requested ETV
367	60012 66 23954173 26353545 782.079748264072 842.079748264072 2 31 41 72 2642
366	60078 64 23954173 26353545 782.079748264072 842.079748264072 2 6 8 14 100
341	60142 99 21565091 26393888 723.051370129571 843.051370129571 3 18 42 102 3852
340	60241 96 21565091 26393888 723.051370129571 843.051370129571 3 0 8 9 65
359	60337 66 23453335 25839443 771.005495680263 831.005495680263 2 32 43 75 2873
358	60403 66 23453335 25839443 771.005495680263 831.005495680263 2 12 14 26 340
333	60469 99 21330984 26064683 716.042136845156 836.042136845156 3 28 44 113 4401
332	60568 98 21330984 26064683 716.042136845156 836.042136845156 3 8 15 38 514
357	60666 66 23072981 25383523 760.092069279426 820.092069279426 2 35 41 76 2906
356	60732 65 23072981 25383523 760.092069279426 820.092069279426 2 9 13 22 250
385	60797 33 24829597 24829597 806.099138583988 806.099138583988 1 36 36 36 1296
384	60830 33 24829597 24829597 806.099138583988 806.099138583988 1 12 12 12 144
279	60863 165 17075411 25886079 592.089977152506 832.089977152506 5 32 43 190 7294
278	61028 163 17075411 25886079 592.089977152506 832.089977152506 5 0 19 54 810
vector 416 World.node[223].appl.middleware.ExampleService proof_size ETV
vector 417 World.node[223].appl.middleware.ExampleService proof_requested ETV
309	61342 132 19294048 26309307 661.071826160885 841.071826160885 4 36 43 156 6122
308	61474 129 19294048 26309307 661.071826160885 841.071826160885 4 1 13 24 238
vector 418 World.node[221].appl.middleware.ExampleService proof_size ETV
vector 419 World.node[221].appl.middleware.ExampleService proof_requested ETV
311	61754 132 19416307 26467175 665.008055379009 845.008055379009 4 36 43 158 6266
310	61886 128 19416307 26467175 665.008055379009 845.008055379009 4 3 7 20 110
vector 420 World.node[226].appl.middleware.ExampleService proof_size ETV
vector 421 World.node[226].appl.middleware.ExampleService proof_requested ETV
vector 422 World.node[228].appl.middleware.ExampleService proof_size ETV
vector 423 World.node[228].appl.middleware.ExampleService proof_requested ETV
375	62316 66 24266724 26703752 790.047451588116 850.047451588116 2 42 42 84 3528
374	62382 66 24266724 26703752 790.047451588116 850.047451588116 2 13 19 32 530
vector 424 World.node[215].appl.middleware.ExampleService proof_size ETV
vector 425 World.node[215].appl.middleware.ExampleService proof_requested ETV
351	62599 99 22575512 27495357 748.095210134611 868.095210134611 3 32 43 116 4554
350	62698 99 22575512 27495357 748.095210134611 868.095210134611 3 13 20 47 765
413	62797 33 26556507 26556507 847.011278539151 847.011278539151 1 43 43 43 1849
412	62830 32 26556507 26556507 847.011278539151 847.011278539151 1 5 5 5 25
337	62862 99 21497934 26315063 721.081114433706 841.081114433706 3 31 43 117 4659
336	62961 97 21497934 26315063 721.081114433706 841.081114433706 3 0 13 14 170
381	63058 66 24516206 27002321 797.056169501622 857.056169501622 2 40 43 83 3449
380	63124 65 24516206 27002321 797.056169501622 857.056169501622 2 0 25 25 625
383	63189 64 24517993 27004518 797.07872417809 857.07872417809 2 36 39 75 2817
382	63253 63 24517993 27004518 797.07872417809 857.07872417809 2 8 16 24 320
vector 426 World.node[227].appl.middleware.ExampleService proof_size ETV
vector 427 World.node[227].appl.middleware.ExampleService proof_requested ETV
vector 428 World.node[220].appl.middleware.ExampleService proof_size ETV
vector 429 World.node[220].appl.middleware.ExampleService proof_requested ETV
319	63618 132 20031387 27222717 682.048644545558 862.048644545558 4 33 40 147 5429
318	63750 130 20031387 27222717 682.048644545558 862.048644545558 4 0 18 35 581
vector 430 World.node[218].appl.middleware.ExampleService proof_size ETV
vector 431 World.node[218].appl.middleware.ExampleService proof_requested ETV
vector 432 World.node[231].appl.middleware.ExampleService proof_size ETV
vector 433 World.node[231].appl.middleware.ExampleService proof_requested ETV
313	64182 160 19614931 29280350 671.04858187132 911.04858187132 5 24 41 166 5802
312	64342 157 19614931 29280350 671.04858187132 911.04858187132 5 2 17 44 514
vector 434 World.node[229].appl.middleware.ExampleService proof_size ETV
vector 435 World.node[229].appl.middleware.ExampleService proof_requested ETV
355	64650 99 23020827 27961295 759.007070858986 879.007070858986 3 41 42 125 5209
354	64749 99 23020827 27961295 759.007070858986 879.007070858986 3 13 23 49 867
vector 436 World.node[224].appl.middleware.ExampleService proof_size ETV
vector 437 World.node[224].appl.middleware.ExampleService proof_requested ETV
377	64999 99 24407239 29405967 794.096436620969 914.096436620969 3 23 42 100 3518
376	65098 96 24407239 29405967 794.096436620969 914.096436620969 3 3 7 13 67
411	65194 66 26471902 29030831 845.059402639442 905.059402639442 2 35 38 73 2669
410	65260 64 26471902 29030831 845.059402639442 905.059402639442 2 0 0 0 0
301	65324 165 18843534 28357750 647.075599625334 887.075599625334 5 35 44 198 7894
300	65489 165 18843534 28357750 647.075599625334 887.075599625334 5 14 20 83 1417
vector 438 World.node[234].appl.middleware.ExampleService proof_size ETV
vector 439 World.node[234].appl.middleware.ExampleService proof_requested ETV
vector 440 World.node[239].appl.middleware.ExampleService proof_size ETV
vector 441 World.node[239].appl.middleware.ExampleService proof_requested ETV
347	65956 132 22165161 29558344 738.076796356868 918.076796356868 4 26 40 143 5241
346	66088 132 22165161 29558344 738.076796356868 918.076796356868 4 12 17 56 798
vector 442 World.node[235].appl.middleware.ExampleService proof_size ETV
vector 443 World.node[235].appl.middleware.ExampleService proof_requested ETV
399	66371 66 26035234 28690505 835.070173776662 895.070173776662 2 36 39 75 2817
398	66437 66 26035234 28690505 835.070173776662 895.070173776662 2 12 16 28 400
vector 444 World.node[237].appl.middleware.ExampleService proof_size ETV
vector 445 World.node[237].appl.middleware.ExampleService proof_requested ETV
vector 446 World.node[236].appl.middleware.ExampleService proof_size ETV
vector 447 World.node[236].appl.middleware.ExampleService proof_requested ETV
vector 448 World.node[230].appl.middleware.ExampleService proof_size ETV
vector 449 World.node[230].appl.middleware.ExampleService proof_requested ETV
401	66956 66 26102140 28742185 837.014548798115 897.014548798115 2 34 37 71 2525
400	67022 66 26102140 28742185 837.014548798115 897.014548798115 2 12 15 27 369
vector 450 World.node[232].appl.middleware.ExampleService proof_size ETV
vector 451 World.node[232].appl.middleware.ExampleService proof_requested ETV
353	67239 132 22745167 29987202 752.038371665613 932.038371665613 4 36 42 158 6268
352	67371 130 22745167 29987202 752.038371665613 932.038371665613 4 0 27 52 1066
345	67501 132 21963139 29365883 733.084780710447 913.084780710447 4 27 44 147 5555
344	67633 132 21963139 29365883 733.084780710447 913.084780710447 4 12 19 63 1017
281	67765 198 17288026 28744213 597.046179865696 897.046179865696 6 28 41 211 7533
280	67963 196 17288026 28744213 597.046179865696 897.046179865696 6 2 18 68 930
389	68159 99 25382934 30270046 820.088751887949 940.088751887949 3 21 44 107 4141
388	68258 97 25382934 30270046 820.088751887949 940.088751887949 3 1 25 35 707
vector 452 World.node[244].appl.middleware.ExampleService proof_size ETV
vector 453 World.node[244].appl.middleware.ExampleService proof_requested ETV
421	68506 66 28195770 30385055 883.063490475225 943.063490475225 2 28 44 72 2720
420	68572 65 28195770 30385055 883.063490475225 943.063490475225 2 6 21 27 477
427	68637 33 28957219 28957219 903.026988914586 903.026988914586 1 41 41 41 1681
426	68670 32 28957219 28957219 903.026988914586 903.026988914586 1 9 9 9 81
361	68702 132 23687217 30886821 776.090276177297 956.090276177297 4 40 44 167 6981
360	68834 129 23687217 30886821 776.090276177297 956.090276177297 4 0 24 37 661
vector 454 World.node[240].appl.middleware.ExampleService proof_size ETV
vector 455 World.node[240].appl.middleware.ExampleService proof_requested ETV
405	69114 99 26393570 31152996 843.046566005819 963.046566005819 3 38 42 121 4889
404	69213 97 26393570 31152996 843.046566005819 963.046566005819 3 0 17 17 289
407	69310 99 26436500 31180372 844.013168517686 964.013168517686 3 38 41 118 4646
406	69409 96 26436500 31180372 844.013168517686 964.013168517686 3 3 8 18 122
397	69505 99 25879281 30730343 832.070065890579 952.070065890579 3 38 43 121 4893
396	69604 97 25879281 30730343 832.070065890579 952.070065890579 3 4 13 26 266
vector 456 World.node[243].appl.middleware.ExampleService proof_size ETV
vector 457 World.node[243].appl.middleware.ExampleService proof_requested ETV
vector 458 World.node[246].appl.middleware.ExampleService proof_size ETV
vector 459 World.node[246].appl.middleware.ExampleService proof_requested ETV
vector 460 World.node[241].appl.middleware.ExampleService proof_size ETV
vector 461 World.node[241].appl.middleware.ExampleService proof_requested ETV
431	70154 64 29156367 31337093 908.03030381205 968.03030381205 2 27 37 64 2098
430	70218 63 29156367 31337093 908.03030381205 968.03030381205 2 9 10 19 181
461	70281 33 31722212 31722212 980.012529816572 980.012529816572 1 29 29 29 841
460	70314 32 31722212 31722212 980.012529816572 980.012529816572 1 6 6 6 36
vector 462 World.node[242].appl.middleware.ExampleService proof_size ETV
vector 463 World.node[242].appl.middleware.ExampleService proof_requested ETV
373	70497 132 24196299 31344705 788.089386306936 968.089386306936 4 37 43 158 6262
372	70629 130 24196299 31344705 788.089386306936 968.089386306936 4 5 16 45 587
vector 464 World.node[247].appl.middleware.ExampleService proof_size ETV
vector 465 World.node[247].appl.middleware.ExampleService proof_requested ETV
339	70910 165 21563994 31152183 723.040363938804 963.040363938804 5 31 43 186 7032
338	71075 164 21563994 31152183 723.040363938804 963.040363938804 5 1 24 69 1243
403	71239 99 26308353 31081252 841.063930083718 961.063930083718 3 26 43 110 4206
402	71338 97 26308353 31081252 841.063930083718 961.063930083718 3 0 18 25 373
409	71435 99 26468752 31209105 845.016715024714 965.016715024714 3 32 43 109 4029
408	71534 96 26468752 31209105 845.016715024714 965.016715024714 3 3 7 15 83
vector 466 World.node[248].appl.middleware.ExampleService proof_size ETV
vector 467 World.node[248].appl.middleware.ExampleService proof_requested ETV
vector 468 World.node[251].appl.middleware.ExampleService proof_size ETV
vector 469 World.node[251].appl.middleware.ExampleService proof_requested ETV
vector 470 World.node[249].appl.middleware.ExampleService proof_size ETV
vector 471 World.node[249].appl.middleware.ExampleService proof_requested ETV
415	72083 99 26701825 31409356 850.026242497703 970.026242497703 3 33 38 109 3977
414	72182 98 26701825 31409356 850.026242497703 970.026242497703 3 8 14 32 360
433	72280 66 29205607 31380698 909.092299146298 969.092299146298 2 33 33 66 2178
432	72346 66 29205607 31380698 909.092299146298 969.092299146298 2 13 19 32 530
429	72412 66 28960253 31153275 903.052290531062 963.052290531062 2 36 42 78 3060
428	72478 65 28960253 31153275 903.052290531062 963.052290531062 2 0 14 14 196
vector 472 World.node[255].appl.middleware.ExampleService proof_size ETV
vector 473 World.node[255].appl.middleware.ExampleService proof_requested ETV
vector 474 World.node[256].appl.middleware.ExampleService proof_size ETV
vector 475 World.node[256].appl.middleware.ExampleService proof_requested ETV
vector 476 World.node[245].appl.middleware.ExampleService proof_size ETV
vector 477 World.node[245].appl.middleware.ExampleService proof_requested ETV
449	72996 65 30623668 32542111 949.08330285009 1009.08330285009 2 36 38 74 2740
448	73061 64 30623668 32542111 949.08330285009 1009.08330285009 2 3 12 15 153
425	73125 100 28282265 32415745 885.072165874625 1005.072165874625 3 25 43 102 3630
424	73225 100 28282265 32415745 885.072165874625 1005.072165874625 3 11 22 45 749
vector 478 World.node[252].appl.middleware.ExampleService proof_size ETV
vector 479 World.node[252].appl.middleware.ExampleService proof_requested ETV
393	73476 133 25671487 32476877 827.083547969954 1007.083547969954 4 34 44 156 6134
392	73609 131 25671487 32476877 827.083547969954 1007.083547969954 4 1 18 39 623
447	73740 67 30535527 32473255 947.045001865295 1007.045001865295 2 34 35 69 2381
446	73807 67 30535527 32473255 947.045001865295 1007.045001865295 2 13 19 32 530
vector 480 World.node[250].appl.middleware.ExampleService proof_size ETV
vector 481 World.node[250].appl.middleware.ExampleService proof_requested ETV
395	74025 133 25876429 32628043 832.024025464756 1012.024025464756 4 22 42 145 5529
394	74158 131 25876429 32628043 832.024025464756 1012.024025464756 4 7 10 36 330
vector 482 World.node[254].appl.middleware.ExampleService proof_size ETV
vector 483 World.node[254].appl.middleware.ExampleService proof_requested ETV
vector 484 World.node[261].appl.middleware.ExampleService proof_size ETV
vector 485 World.node[261].appl.middleware.ExampleService proof_requested ETV
379	74591 166 24513262 33286137 797.012661844422 1037.012661844422 5 21 43 173 6267
378	74757 162 24513262 33286137 797.012661844422 1037.012661844422 5 3 10 28 186
vector 486 World.node[253].appl.middleware.ExampleService proof_size ETV
vector 487 World.node[253].appl.middleware.ExampleService proof_requested ETV
387	75070 132 25027783 32006944 812.032455844851 992.032455844851 4 34 45 155 6087
386	75202 132 25027783 32006944 812.032455844851 992.032455844851 4 10 17 56 810
vector 488 World.node[258].appl.middleware.ExampleService proof_size ETV
vector 489 World.node[258].appl.middleware.ExampleService proof_requested ETV
vector 490 World.node[267].appl.middleware.ExampleService proof_size ETV
vector 491 World.node[267].appl.middleware.ExampleService proof_requested ETV
391	75636 133 25552481 32376643 824.087589678937 1004.087589678937 4 19 42 142 5410
390	75769 133 25552481 32376643 824.087589678937 1004.087589678937 4 10 19 61 991
467	75902 67 32094830 33887570 995.021459221886 1055.021459221886 2 22 38 60 1928
466	75969 67 32094830 33887570 995.021459221886 1055.021459221886 2 11 17 28 410
335	76036 199 21492623 32877633 721.018796307524 1021.018796307524 6 24 42 214 7826
334	76235 195 21492623 32877633 721.018796307524 1021.018796307524 6 1 25 52 884
vector 492 World.node[260].appl.middleware.ExampleService proof_size ETV
vector 493 World.node[260].appl.middleware.ExampleService proof_requested ETV
vector 494 World.node[257].appl.middleware.ExampleService proof_size ETV
vector 495 World.node[257].appl.middleware.ExampleService proof_requested ETV
423	76732 134 28200121 34185995 883.122432907275 1063.022432907275 4 23 32 115 3355
422	76866 132 28200121 34185995 883.122432907275 1063.022432907275 4 3 18 41 565
479	76998 34 32882081 32882081 1021.069507339015 1021.069507339015 1 28 28 28 784
478	77032 33 32882081 32882081 1021.069507339015 1021.069507339015 1 9 9 9 81
445	77065 101 30466672 34243475 945.056596363289 1065.056596363289 3 35 37 109 3963
444	77166 100 30466672 34243475 945.056596363289 1065.056596363289 3 8 18 37 509
vector 496 World.node[259].appl.middleware.ExampleService proof_size ETV
vector 497 World.node[259].appl.middleware.ExampleService proof_requested ETV
481	77417 34 33049278 33049278 1028.004143649922 1028.004143649922 1 34 34 34 1156
480	77451 34 33049278 33049278 1028.004143649922 1028.004143649922 1 16 16 16 256
vector 498 World.node[263].appl.middleware.ExampleService proof_size ETV
vector 499 World.node[263].appl.middleware.ExampleService proof_requested ETV
463	77636 67 31888570 33622660 987.069596450264 1047.069596450264 2 22 31 53 1445
462	77703 66 31888570 33622660 987.069596450264 1047.069596450264 2 8 10 18 164
499	77769 34 34316066 34316066 1068.017652466125 1068.017652466125 1 31 31 31 961
498	77803 34 34316066 34316066 1068.017652466125 1068.017652466125 1 14 14 14 196
vector 500 World.node[266].appl.middleware.ExampleService proof_size ETV
vector 501 World.node[266].appl.middleware.ExampleService proof_requested ETV
vector 502 World.node[262].appl.middleware.ExampleService proof_size ETV
vector 503 World.node[262].appl.middleware.ExampleService proof_requested ETV
vector 504 World.node[272].appl.middleware.ExampleService proof_size ETV
vector 505 World.node[272].appl.middleware.ExampleService proof_requested ETV
vector 506 World.node[269].appl.middleware.ExampleService proof_size ETV
vector 507 World.node[269].appl.middleware.ExampleService proof_requested ETV
vector 508 World.node[264].appl.middleware.ExampleService proof_size ETV
vector 509 World.node[264].appl.middleware.ExampleService proof_requested ETV
441	78592 100 30190729 34006206 938.072665216518 1058.072665216518 3 28 39 98 3266
440	78692 100 30190729 34006206 938.072665216518 1058.072665216518 3 14 23 55 1049
489	78792 34 33658143 33658143 1048.026584161562 1048.026584161562 1 26 26 26 676
488	78826 33 33658143 33658143 1048.026584161562 1048.026584161562 1 8 8 8 64
vector 510 World.node[273].appl.middleware.ExampleService proof_size ETV
vector 511 World.node[273].appl.middleware.ExampleService proof_requested ETV
vector 512 World.node[268].appl.middleware.ExampleService proof_size ETV
vector 513 World.node[268].appl.middleware.ExampleService proof_requested ETV
vector 514 World.node[265].appl.middleware.ExampleService proof_size ETV
vector 515 World.node[265].appl.middleware.ExampleService proof_requested ETV
455	79312 67 31439998 33120277 971.022997867526 1031.022997867526 2 32 35 67 2249
454	79379 66 31439998 33120277 971.022997867526 1031.022997867526 2 9 10 19 181
435	79445 100 29520329 33289544 917.040482123429 1037.040482123429 3 28 36 98 3236
434	79545 98 29520329 33289544 917.040482123429 1037.040482123429 3 1 10 18 150
473	79643 68 32631041 34428980 1012.055787704373 1072.055787704373 2 29 36 65 2137
472	79711 66 32631041 34428980 1012.055787704373 1072.055787704373 2 2 6 8 40
439	79777 97 30048017 33865669 934.06414834857 1054.06414834857 3 34 41 109 3993
438	79874 96 30048017 33865669 934.06414834857 1054.06414834857 3 9 16 36 458
471	79970 68 32305455 34150912 1002.022165778163 1062.022165778163 2 28 32 60 1808
470	80038 67 32305455 34150912 1002.022165778163 1062.022165778163 2 8 10 18 164
vector 516 World.node[276].appl.middleware.ExampleService proof_size ETV
vector 517 World.node[276].appl.middleware.ExampleService proof_requested ETV
457	80256 101 31646969 35106957 977.072870716173 1097.072870716173 3 26 34 93 2921
456	80357 98 31646969 35106957 977.072870716173 1097.072870716173 3 0 5 7 29
vector 518 World.node[277].appl.middleware.ExampleService proof_size ETV
vector 519 World.node[277].appl.middleware.ExampleService proof_requested ETV
443	80606 135 30263053 35677329 940.032547943224 1120.032547943224 4 28 39 130 4290
442	80741 133 30263053 35677329 940.032547943224 1120.032547943224 4 7 16 46 582
vector 520 World.node[270].appl.middleware.ExampleService proof_size ETV
vector 521 World.node[270].appl.middleware.ExampleService proof_requested ETV
vector 522 World.node[271].appl.middleware.ExampleService proof_size ETV
vector 523 World.node[271].appl.middleware.ExampleService proof_requested ETV
vector 524 World.node[274].appl.middleware.ExampleService proof_size ETV
vector 525 World.node[274].appl.middleware.ExampleService proof_requested ETV
vector 526 World.node[275].appl.middleware.ExampleService proof_size ETV
vector 527 World.node[275].appl.middleware.ExampleService proof_requested ETV
477	81478 68 32679327 34468383 1014.019111919473 1074.019111919473 2 25 31 56 1586
476	81546 66 32679327 34468383 1014.019111919473 1074.019111919473 2 3 6 9 45
507	81612 34 34564648 34564648 1078.039908298128 1078.039908298128 1 25 25 25 625
506	81646 33 34564648 34564648 1078.039908298128 1078.039908298128 1 3 3 3 9
vector 528 World.node[280].appl.middleware.ExampleService proof_size ETV
vector 529 World.node[280].appl.middleware.ExampleService proof_requested ETV
vector 530 World.node[289].appl.middleware.ExampleService proof_size ETV
vector 531 World.node[289].appl.middleware.ExampleService proof_requested ETV
501	81981 68 34504544 36143190 1075.024275855278 1135.024275855278 2 33 34 67 2245
500	82049 67 34504544 36143190 1075.024275855278 1135.024275855278 2 5 11 16 146
vector 532 World.node[284].appl.middleware.ExampleService proof_size ETV
vector 533 World.node[284].appl.middleware.ExampleService proof_requested ETV
vector 534 World.node[282].appl.middleware.ExampleService proof_size ETV
vector 535 World.node[282].appl.middleware.ExampleService proof_requested ETV
453	82418 135 30952634 36233779 958.020094102481 1138.020094102481 4 35 40 145 5275
452	82553 131 30952634 36233779 958.020094102481 1138.020094102481 4 4 9 26 182
vector 536 World.node[279].appl.middleware.ExampleService proof_size ETV
vector 537 World.node[279].appl.middleware.ExampleService proof_requested ETV
vector 538 World.node[287].appl.middleware.ExampleService proof_size ETV
vector 539 World.node[287].appl.middleware.ExampleService proof_requested ETV
417	82986 167 27525491 35389851 869.050437074085 1109.050437074085 5 30 42 184 6854
416	83153 166 27525491 35389851 869.050437074085 1109.050437074085 5 6 18 63 873
vector 540 World.node[286].appl.middleware.ExampleService proof_size ETV
vector 541 World.node[286].appl.middleware.ExampleService proof_requested ETV
451	83470 135 30695997 36016206 951.082647230569 1131.082647230569 4 32 37 139 4845
450	83605 135 30695997 36016206 951.082647230569 1131.082647230569 4 14 18 63 1001
vector 542 World.node[283].appl.middleware.ExampleService proof_size ETV
vector 543 World.node[283].appl.middleware.ExampleService proof_requested ETV
vector 544 World.node[285].appl.middleware.ExampleService proof_size ETV
[...]
1687	292517 72 138067553 142158817 3402.006826092466 3462.006826092466 2 41 57 98 4930
1686	292589 72 138067553 142158817 3402.006826092466 3462.006826092466 2 23 29 52 1370
1715	292661 36 140849256 140849256 3441.048736944236 3441.048736944236 1 53 53 53 2809
1714	292697 36 140849256 140849256 3441.048736944236 3441.048736944236 1 14 14 14 196
1655	292733 108 133400055 141955189 3339.076761792856 3459.076761792856 3 35 60 154 8306
1654	292841 108 133400055 141955189 3339.076761792856 3459.076761792856 3 15 17 49 803
1723	292949 36 141937206 141937206 3459.003378277621 3459.003378277621 1 53 53 53 2809
1722	292985 36 141937206 141937206 3459.003378277621 3459.003378277621 1 15 15 15 225
1685	293021 72 137814914 141945044 3399.015921287844 3459.015921287844 2 35 56 91 4361
1684	293093 71 137814914 141945044 3399.015921287844 3459.015921287844 2 0 14 14 196
1727	293164 36 142159206 142159206 3462.014479521802 3462.014479521802 1 39 39 39 1521
1726	293200 36 142159206 142159206 3462.014479521802 3462.014479521802 1 11 11 11 121
1633	293236 144 130253832 142748940 3290.049213168933 3470.049213168933 4 37 54 186 8838
1632	293380 144 130253832 142748940 3290.049213168933 3470.049213168933 4 12 19 65 1083
1709	293524 72 140097863 144141694 3430.097700179531 3490.097700179531 2 51 51 102 5202
1708	293596 70 140097863 144141694 3430.097700179531 3490.097700179531 2 0 1 1 1
1717	293666 36 141116486 141116486 3445.058954979782 3445.058954979782 1 44 44 44 1936
1716	293702 36 141116486 141116486 3445.058954979782 3445.058954979782 1 26 26 26 676
vector 1736 World.node[912].appl.middleware.ExampleService proof_size ETV
vector 1737 World.node[912].appl.middleware.ExampleService proof_requested ETV
vector 1738 World.node[915].appl.middleware.ExampleService proof_size ETV
vector 1739 World.node[915].appl.middleware.ExampleService proof_requested ETV
vector 1740 World.node[905].appl.middleware.ExampleService proof_size ETV
vector 1741 World.node[905].appl.middleware.ExampleService proof_requested ETV
1631	294197 144 129863802 142249122 3283.068212350132 3463.068212350132 4 28 55 185 9013
1630	294341 143 129863802 142249122 3283.068212350132 3463.068212350132 4 0 21 55 1027
vector 1742 World.node[909].appl.middleware.ExampleService proof_size ETV
vector 1743 World.node[909].appl.middleware.ExampleService proof_requested ETV
vector 1744 World.node[904].appl.middleware.ExampleService proof_size ETV
vector 1745 World.node[904].appl.middleware.ExampleService proof_requested ETV
1681	294790 72 137347353 141586257 3394.073174639582 3454.073174639582 2 51 58 109 5965
1680	294862 71 137347353 141586257 3394.073174639582 3454.073174639582 2 5 12 17 169
1561	294933 216 124340165 142526327 3167.043361396878 3467.043361396878 6 43 60 305 15709
1560	295149 214 124340165 142526327 3167.043361396878 3467.043361396878 6 0 25 70 1300
vector 1746 World.node[907].appl.middleware.ExampleService proof_size ETV
vector 1747 World.node[907].appl.middleware.ExampleService proof_requested ETV
1657	295516 108 133456344 142026907 3340.052940889471 3460.052940889471 3 51 56 159 8441
1656	295624 108 133456344 142026907 3340.052940889471 3460.052940889471 3 20 25 67 1509
1649	295732 144 132452207 144864652 3325.065954875387 3505.065954875387 4 47 60 208 10922
1648	295876 142 132452207 144864652 3325.065954875387 3505.065954875387 4 0 21 36 638
1615	296018 180 128311047 144469203 3257.008405917464 3497.008405917464 5 48 56 259 13461
1614	296198 178 128311047 144469203 3257.008405917464 3497.008405917464 5 6 13 50 534
vector 1748 World.node[916].appl.middleware.ExampleService proof_size ETV
vector 1749 World.node[916].appl.middleware.ExampleService proof_requested ETV
vector 1750 World.node[911].appl.middleware.ExampleService proof_size ETV
vector 1751 World.node[911].appl.middleware.ExampleService proof_requested ETV
vector 1752 World.node[921].appl.middleware.ExampleService proof_size ETV
vector 1753 World.node[921].appl.middleware.ExampleService proof_requested ETV
vector 1754 World.node[914].appl.middleware.ExampleService proof_size ETV
vector 1755 World.node[914].appl.middleware.ExampleService proof_requested ETV
vector 1756 World.node[922].appl.middleware.ExampleService proof_size ETV
vector 1757 World.node[922].appl.middleware.ExampleService proof_requested ETV
1457	297141 360 114042671 143525548 2941.199919937225 3481.099919937225 10 37 55 444 20046
1456	297501 354 114042671 143525548 2941.199919937225 3481.099919937225 10 0 17 81 1099
vector 1758 World.node[913].appl.middleware.ExampleService proof_size ETV
vector 1759 World.node[913].appl.middleware.ExampleService proof_requested ETV
vector 1760 World.node[924].appl.middleware.ExampleService proof_size ETV
vector 1761 World.node[924].appl.middleware.ExampleService proof_requested ETV
1559	298161 252 124265790 145876162 3165.073441021983 3525.073441021983 7 40 59 344 17214
1558	298413 252 124265790 145876162 3165.073441021983 3525.073441021983 7 14 23 124 2250
1653	298665 144 133394328 145532421 3339.049975431873 3519.049975431873 4 43 50 188 8874
1652	298809 143 133394328 145532421 3339.049975431873 3519.049975431873 4 0 19 47 755
1697	298952 72 139406640 143523602 3421.079010937549 3481.079010937549 2 51 57 108 5850
1696	299024 72 139406640 143523602 3421.079010937549 3481.079010937549 2 14 23 37 725
1589	299096 216 125951928 144937350 3207.063084086892 3507.063084086892 6 32 56 273 12885
1588	299312 214 125951928 144937350 3207.063084086892 3507.063084086892 6 1 21 66 1068
1679	299526 108 136450517 144771048 3383.035200817371 3503.035200817371 3 24 49 120 5186
1678	299634 107 136450517 144771048 3383.035200817371 3503.035200817371 3 4 19 33 477
vector 1762 World.node[918].appl.middleware.ExampleService proof_size ETV
vector 1763 World.node[918].appl.middleware.ExampleService proof_requested ETV
vector 1764 World.node[926].appl.middleware.ExampleService proof_size ETV
vector 1765 World.node[926].appl.middleware.ExampleService proof_requested ETV
vector 1766 World.node[917].appl.middleware.ExampleService proof_size ETV
vector 1767 World.node[917].appl.middleware.ExampleService proof_requested ETV
1747	300200 36 145056504 145056504 3510.031888681208 3510.031888681208 1 48 48 48 2304
1746	300236 36 145056504 145056504 3510.031888681208 3510.031888681208 1 14 14 14 196
vector 1768 World.node[928].appl.middleware.ExampleService proof_size ETV
vector 1769 World.node[928].appl.middleware.ExampleService proof_requested ETV
vector 1770 World.node[920].appl.middleware.ExampleService proof_size ETV
vector 1771 World.node[920].appl.middleware.ExampleService proof_requested ETV
vector 1772 World.node[919].appl.middleware.ExampleService proof_size ETV
vector 1773 World.node[919].appl.middleware.ExampleService proof_requested ETV
vector 1774 World.node[925].appl.middleware.ExampleService proof_size ETV
vector 1775 World.node[925].appl.middleware.ExampleService proof_requested ETV
1735	300884 72 143805901 146772058 3485.044797448325 3545.044797448325 2 48 55 103 5329
1734	300956 71 143805901 146772058 3485.044797448325 3545.044797448325 2 0 20 20 400
1673	301027 140 135354701 146873586 3367.08073413705 3547.08073413705 4 33 54 176 8078
1672	301167 137 135354701 146873586 3367.08073413705 3547.08073413705 4 1 12 15 147
1693	301304 108 138426286 145919165 3406.022532324446 3526.022532324446 3 44 55 152 7770
1692	301412 107 138426286 145919165 3406.022532324446 3526.022532324446 3 7 26 50 1014
1725	301519 72 142104386 145629916 3461.064780010469 3521.064780010469 2 38 51 89 4045
1724	301591 72 142104386 145629916 3461.064780010469 3521.064780010469 2 14 17 31 485
1701	301663 105 139729378 146774562 3425.05299725295 3545.05299725295 3 46 58 158 8396
1700	301768 104 139729378 146774562 3425.05299725295 3545.05299725295 3 1 28 53 1361
1731	301872 72 142816394 146143929 3471.016696560755 3531.016696560755 2 38 47 85 3653
1730	301944 72 142816394 146143929 3471.016696560755 3531.016696560755 2 16 24 40 832
vector 1776 World.node[934].appl.middleware.ExampleService proof_size ETV
vector 1777 World.node[934].appl.middleware.ExampleService proof_requested ETV
1621	302169 216 128685428 147711908 3263.043616289855 3563.043616289855 6 30 59 281 13783
1620	302385 213 128685428 147711908 3263.043616289855 3563.043616289855 6 0 28 73 1573
vector 1778 World.node[923].appl.middleware.ExampleService proof_size ETV
vector 1779 World.node[923].appl.middleware.ExampleService proof_requested ETV
1647	302751 175 132399682 147764069 3324.04849517548 3564.04849517548 5 42 52 246 12174
1646	302926 175 132399682 147764069 3324.04849517548 3564.04849517548 5 14 23 89 1631
1737	303101 70 144471258 147384183 3497.03789858697 3557.03789858697 2 31 49 80 3362
1736	303171 68 144471258 147384183 3497.03789858697 3557.03789858697 2 0 0 0 0
1691	303239 108 138425911 145918823 3406.017112124874 3526.017112124874 3 43 58 152 7814
1690	303347 106 138425911 145918823 3406.017112124874 3526.017112124874 3 1 11 19 171
vector 1780 World.node[927].appl.middleware.ExampleService proof_size ETV
vector 1781 World.node[927].appl.middleware.ExampleService proof_requested ETV
vector 1782 World.node[933].appl.middleware.ExampleService proof_size ETV
vector 1783 World.node[933].appl.middleware.ExampleService proof_requested ETV
1577	303759 252 125075353 146774564 3185.055946156289 3545.055946156289 7 43 60 346 17348
1576	304011 251 125075353 146774564 3185.055946156289 3545.055946156289 7 1 24 105 1879
1767	304262 36 146822902 146822902 3546.080350563396 3546.080350563396 1 31 31 31 961
1766	304298 35 146822902 146822902 3546.080350563396 3546.080350563396 1 6 6 6 36
vector 1784 World.node[931].appl.middleware.ExampleService proof_size ETV
vector 1785 World.node[931].appl.middleware.ExampleService proof_requested ETV
vector 1786 World.node[932].appl.middleware.ExampleService proof_size ETV
vector 1787 World.node[932].appl.middleware.ExampleService proof_requested ETV
vector 1788 World.node[937].appl.middleware.ExampleService proof_size ETV
vector 1789 World.node[937].appl.middleware.ExampleService proof_requested ETV
1741	304792 72 144476387 147389161 3497.075305584772 3557.075305584772 2 43 46 89 3965
1740	304864 70 144476387 147389161 3497.075305584772 3557.075305584772 2 8 9 17 145
vector 1790 World.node[938].appl.middleware.ExampleService proof_size ETV
vector 1791 World.node[938].appl.middleware.ExampleService proof_requested ETV
vector 1792 World.node[930].appl.middleware.ExampleService proof_size ETV
vector 1793 World.node[930].appl.middleware.ExampleService proof_requested ETV
1571	305240 288 124718826 149164628 3176.051326513663 3596.051326513663 8 37 57 381 18497
1570	305528 286 124718826 149164628 3176.051326513663 3596.051326513663 8 8 25 121 2067
vector 1794 World.node[936].appl.middleware.ExampleService proof_size ETV
vector 1795 World.node[936].appl.middleware.ExampleService proof_requested ETV
1719	305967 108 141212244 147916626 3447.050325849629 3567.050325849629 3 39 50 131 5785
1718	306075 108 141212244 147916626 3447.050325849629 3567.050325849629 3 12 18 45 693
vector 1796 World.node[943].appl.middleware.ExampleService proof_size ETV
vector 1797 World.node[943].appl.middleware.ExampleService proof_requested ETV
1705	306336 144 139911622 149629025 3427.169695657631 3607.069695657631 4 20 54 162 7190
1704	306480 142 139911622 149629025 3427.169695657631 3607.069695657631 4 0 23 41 853
1759	306622 72 145920210 148802011 3526.042541779066 3586.042541779066 2 41 44 85 3617
1758	306694 70 145920210 148802011 3526.042541779066 3586.042541779066 2 0 4 4 16
vector 1798 World.node[935].appl.middleware.ExampleService proof_size ETV
vector 1799 World.node[935].appl.middleware.ExampleService proof_requested ETV
vector 1800 World.node[942].appl.middleware.ExampleService proof_size ETV
vector 1801 World.node[942].appl.middleware.ExampleService proof_requested ETV
1733	307070 105 143381000 149260995 3479.01084291928 3599.01084291928 3 29 53 124 5414
1732	307175 103 143381000 149260995 3479.01084291928 3599.01084291928 3 0 11 17 157
1765	307278 70 146768286 149531598 3545.00341558021 3605.00341558021 2 44 46 90 4052
1764	307348 68 146768286 149531598 3545.00341558021 3605.00341558021 2 3 6 9 45
1643	307416 216 131351606 149619039 3307.011089177942 3607.011089177942 6 35 58 280 13446
1642	307632 215 131351606 149619039 3307.011089177942 3607.011089177942 6 4 22 78 1178
1775	307847 72 147516303 150190962 3559.071411676821 3619.071411676821 2 30 50 80 3400
1774	307919 71 147516303 150190962 3559.071411676821 3619.071411676821 2 7 12 19 193
1601	307990 252 126892282 148834755 3227.099998441082 3587.099998441082 7 40 58 347 17483
1600	308242 248 126892282 148834755 3227.099998441082 3587.099998441082 7 2 22 81 1255
1795	308490 36 149378818 149378818 3602.017040981096 3602.017040981096 1 40 40 40 1600
1794	308526 36 149378818 149378818 3602.017040981096 3602.017040981096 1 10 10 10 100
1729	308562 108 142464071 148799515 3466.003960215091 3586.003960215091 3 21 45 102 3762
1728	308670 106 142464071 148799515 3466.003960215091 3586.003960215091 3 5 13 25 243
1739	308776 108 144473665 150090001 3497.061205752497 3617.061205752497 3 31 49 127 5571
1738	308884 106 144473665 150090001 3497.061205752497 3617.061205752497 3 0 14 14 196
vector 1802 World.node[939].appl.middleware.ExampleService proof_size ETV
vector 1803 World.node[939].appl.middleware.ExampleService proof_requested ETV
vector 1804 World.node[940].appl.middleware.ExampleService proof_size ETV
vector 1805 World.node[940].appl.middleware.ExampleService proof_requested ETV
vector 1806 World.node[941].appl.middleware.ExampleService proof_size ETV
vector 1807 World.node[941].appl.middleware.ExampleService proof_requested ETV
1771	309449 72 147290963 150009039 3555.080563717755 3615.080563717755 2 44 47 91 4145
1770	309521 72 147290963 150009039 3555.080563717755 3615.080563717755 2 30 31 61 1861
1779	309593 72 148159509 150595701 3572.056439728104 3632.056439728104 2 31 47 78 3170
1778	309665 71 148159509 150595701 3572.056439728104 3632.056439728104 2 8 19 27 425
1783	309736 72 148766315 150958980 3585.019622834935 3645.019622834935 2 34 44 78 3092
1782	309808 72 148766315 150958980 3585.019622834935 3645.019622834935 2 10 11 21 221
1743	309880 108 144683476 150261330 3501.065630609845 3621.065630609845 3 42 48 133 5917
1742	309988 108 144683476 150261330 3501.065630609845 3621.065630609845 3 20 21 61 1241
1597	310096 288 126744934 150933767 3224.044574693078 3644.044574693078 8 30 59 374 18162
1596	310384 287 126744934 150933767 3224.044574693078 3644.044574693078 8 1 21 99 1445
1721	310671 144 141878196 150777915 3458.097432616912 3638.097432616912 4 35 48 159 6435
1720	310815 143 141878196 150777915 3458.097432616912 3638.097432616912 4 1 25 62 1276
1761	310958 105 145932971 150978935 3526.18654820486 3646.08654820486 3 15 38 87 2825
1760	311063 102 145932971 150978935 3526.18654820486 3646.08654820486 3 3 9 16 106
1793	311165 72 149134604 151177008 3595.051447555237 3655.051447555237 2 33 44 77 3025
1792	311237 71 149134604 151177008 3595.051447555237 3655.051447555237 2 8 13 21 233
1695	311308 175 138974411 151153586 3414.00976705295 3654.00976705295 5 33 55 231 10991
1694	311483 173 138974411 151153586 3414.00976705295 3654.00976705295 5 6 20 62 910
1781	311656 72 148407773 150736633 3577.086611901829 3637.086611901829 2 29 42 71 2605
1780	311728 70 148407773 150736633 3577.086611901829 3637.086611901829 2 4 7 11 65
1791	311798 72 149016254 151107541 3592.015238167928 3652.015238167928 2 34 34 68 2312
1790	311870 70 149016254 151107541 3592.015238167928 3652.015238167928 2 4 4 8 32
1787	311940 72 148942698 151065583 3590.047654574621 3650.047654574621 2 34 39 73 2677
1786	312012 70 148942698 151065583 3590.047654574621 3650.047654574621 2 9 9 18 162
1801	312082 72 150191250 151678703 3619.074937263574 3679.074937263574 2 24 42 66 2340
1800	312154 71 150191250 151678703 3619.074937263574 3679.074937263574 2 5 12 17 169
1785	312225 108 148834425 152029888 3587.087941969419 3707.087941969419 3 16 43 81 2589
1784	312333 106 148834425 152029888 3587.087941969419 3707.087941969419 3 3 17 26 334
1745	312439 144 144684848 151705979 3501.086418484733 3681.086418484733 4 31 48 164 6882
1744	312583 142 144684848 151705979 3501.086418484733 3681.086418484733 4 0 20 40 618
1703	312725 180 139877169 151437531 3427.016073808866 3667.016073808866 5 31 51 203 8453
1702	312905 177 139877169 151437531 3427.016073808866 3667.016073808866 5 1 14 45 511
1797	313082 72 149844176 151546749 3612.046807874413 3672.046807874413 2 32 39 71 2545
1796	313154 71 149844176 151546749 3612.046807874413 3672.046807874413 2 7 14 21 245
1799	313225 72 150137489 151660438 3618.067217421252 3678.067217421252 2 29 39 68 2362
1798	313297 71 150137489 151660438 3618.067217421252 3678.067217421252 2 7 13 20 218
1763	313368 143 146676193 152138612 3543.080259067402 3723.080259067402 4 9 42 118 4094
1762	313511 141 146676193 152138612 3543.080259067402 3723.080259067402 4 1 12 29 273
1689	313652 216 138270060 151998468 3404.048791526165 3704.048791526165 6 22 50 244 10502
1688	313868 210 138270060 151998468 3404.048791526165 3704.048791526165 6 0 6 15 67
1753	314078 143 145589116 151957351 3520.098312759725 3700.098312759725 4 6 32 94 2636
1752	314221 143 145589116 151957351 3520.098312759725 3700.098312759725 4 3 19 47 683
1749	314364 180 145534694 152356013 3519.067467958806 3759.067467958806 5 15 37 139 4267
1748	314544 177 145534694 152356013 3519.067467958806 3759.067467958806 5 7 21 62 908
1805	314721 108 150862584 152365484 3641.097429537377 3761.097429537377 3 13 33 70 1834
1804	314829 105 150862584 152365484 3641.097429537377 3761.097429537377 3 1 9 14 98
1803	314934 105 150832598 152360108 3640.03490515945 3760.03490515945 3 13 31 63 1491
1802	315039 102 150832598 152360108 3640.03490515945 3760.03490515945 3 3 8 14 82
1683	315141 252 137644614 152339611 3397.004430210893 3757.004430210893 7 13 57 269 12019
1682	315393 247 137644614 152339611 3397.004430210893 3757.004430210893 7 2 17 47 483
1707	315640 216 140087778 152176036 3430.029741450632 3730.029741450632 6 17 53 241 10695
1706	315856 214 140087778 152176036 3430.029741450632 3730.029741450632 6 2 26 80 1472
1751	316070 180 145588427 152360529 3520.083966210415 3760.083966210415 5 16 45 161 5759
1750	316250 178 145588427 152360529 3520.083966210415 3760.083966210415 5 1 25 63 1143
1789	316428 144 148983918 152399613 3591.058699921076 3771.058699921076 4 12 42 109 3481
1788	316572 141 148983918 152399613 3591.058699921076 3771.058699921076 4 0 10 17 125
1711	316713 251 140541628 152459852 3437.023145621037 3797.023145621037 7 8 54 249 10655
1710	316964 246 140541628 152459852 3437.023145621037 3797.023145621037 7 1 13 34 274
1769	317210 214 147285558 152529962 3555.037694433215 3855.037694433215 6 3 49 151 5811
1768	317424 213 147285558 152529962 3555.037694433215 3855.037694433215 6 1 18 53 767
1777	317637 179 148123267 152478733 3571.078783356748 3811.078783356748 5 7 42 129 4149
1776	317816 177 148123267 152478733 3571.078783356748 3811.078783356748 5 2 13 38 394
1713	317993 278 140761162 152534998 3440.09729784925 3860.09729784925 8 4 53 236 9560
1712	318271 276 140761162 152534998 3440.09729784925 3860.09729784925 8 0 22 83 1349
1755	318547 250 145619458 152549149 3521.015459054918 3881.015459054918 7 4 41 161 5025
1754	318797 247 145619458 152549149 3521.015459054918 3881.015459054918 7 1 18 55 679
1773	319044 214 147381267 152531707 3557.013672940969 3857.013672940969 6 4 47 151 5487
1772	319258 211 147381267 152531707 3557.013672940969 3857.013672940969 6 1 10 25 155
1757	319469 250 145687872 152550141 3522.044762560353 3882.044762560353 7 4 39 138 3788
1756	319719 247 145687872 152550141 3522.044762560353 3882.044762560353 7 2 15 50 520
1807	319966 178 150932777 152550962 3644.014317147364 3884.014317147364 5 4 34 83 1993
1806	320144 175 150932777 152550962 3644.014317147364 3884.014317147364 5 2 6 20 90

