file 324048 1573989169                                          
version 2
run No_Obstacles-2-20191117-11:54:49-6118
attr configname No_Obstacles
attr datetime 20191117-11:54:49
attr experiment No_Obstacles
attr inifile omnetpp.ini
attr iterationvars $0=80
attr iterationvarsf 80-
attr measurement $0=80
attr network artery.veins.World
attr processid 6118
attr repetition 0
attr replication #0
attr resultdir results
attr runnumber 2
attr seedset 2
param *.traci.launcher.sumocfg "\"No_Obstacles/run.sumo.cfg\""
param *.node[*].nic.mac1609_4.txPower 20mW
param *.node[*].nic.phy80211p.decider "xmldoc(\"config.xml\")"
param *.node[*].nic.phy80211p.analogueModels "xmldoc(\"config.xml\")"
param *.node[*].applType "\"artery.veins.ApplicationLayer\""
param *.node[*].appl.middleware.updateInterval 0.1s
param *.node[*].appl.middleware.datetime "\"2013-06-01 12:35:00\""
param *.node[*].appl.middleware.services "xmldoc(\"services.xml\")"
param *.node[*].appl.middleware.ExampleService.DecisionLogic 80
param *.node[*].appl.middleware.ExampleService.NeighboringWindow 60
param *.traci.core.version -1
param *.traci.launcher.typename "\"PosixLauncher\""
param *.playgroundSizeX 4000m
param *.playgroundSizeY 4000m
param *.playgroundSizeZ 50m
param *.connectionManager.maxInterfDist 1500m
param *.connectionManager.sendDirect true
param *.connectionManager.coreDebug false

vector 0 World.node[0].appl.middleware.ExampleService proof_size ETV
vector 1 World.node[0].appl.middleware.ExampleService proof_requested ETV
vector 2 World.node[3].appl.middleware.ExampleService proof_size ETV
vector 3 World.node[3].appl.middleware.ExampleService proof_requested ETV
3	1590 26 10902 10902 25.031336662616 25.031336662616 1 3 3 3 9
2	1616 26 10902 10902 25.031336662616 25.031336662616 1 0 0 0 0
vector 4 World.node[4].appl.middleware.ExampleService proof_size ETV
vector 5 World.node[4].appl.middleware.ExampleService proof_requested ETV
vector 6 World.node[13].appl.middleware.ExampleService proof_size ETV
vector 7 World.node[13].appl.middleware.ExampleService proof_requested ETV
vector 8 World.node[1].appl.middleware.ExampleService proof_size ETV
vector 9 World.node[1].appl.middleware.ExampleService proof_requested ETV
vector 10 World.node[7].appl.middleware.ExampleService proof_size ETV
vector 11 World.node[7].appl.middleware.ExampleService proof_requested ETV
vector 12 World.node[5].appl.middleware.ExampleService proof_size ETV
vector 13 World.node[5].appl.middleware.ExampleService proof_requested ETV
vector 14 World.node[16].appl.middleware.ExampleService proof_size ETV
vector 15 World.node[16].appl.middleware.ExampleService proof_requested ETV
vector 16 World.node[14].appl.middleware.ExampleService proof_size ETV
vector 17 World.node[14].appl.middleware.ExampleService proof_requested ETV
vector 18 World.node[20].appl.middleware.ExampleService proof_size ETV
vector 19 World.node[20].appl.middleware.ExampleService proof_requested ETV
vector 20 World.node[8].appl.middleware.ExampleService proof_size ETV
vector 21 World.node[8].appl.middleware.ExampleService proof_requested ETV
vector 22 World.node[17].appl.middleware.ExampleService proof_size ETV
vector 23 World.node[17].appl.middleware.ExampleService proof_requested ETV
vector 24 World.node[6].appl.middleware.ExampleService proof_size ETV
vector 25 World.node[6].appl.middleware.ExampleService proof_requested ETV
vector 26 World.node[12].appl.middleware.ExampleService proof_size ETV
vector 27 World.node[12].appl.middleware.ExampleService proof_requested ETV
vector 28 World.node[10].appl.middleware.ExampleService proof_size ETV
vector 29 World.node[10].appl.middleware.ExampleService proof_requested ETV
vector 30 World.node[11].appl.middleware.ExampleService proof_size ETV
vector 31 World.node[11].appl.middleware.ExampleService proof_requested ETV
vector 32 World.node[21].appl.middleware.ExampleService proof_size ETV
vector 33 World.node[21].appl.middleware.ExampleService proof_requested ETV
33	3829 29 308983 308983 90.092579661729 90.092579661729 1 18 18 18 324
32	3858 29 308983 308983 90.092579661729 90.092579661729 1 10 10 10 100
vector 34 World.node[19].appl.middleware.ExampleService proof_size ETV
vector 35 World.node[19].appl.middleware.ExampleService proof_requested ETV
1	4034 53 2729 186715 14.097268435382 74.097268435382 2 2 15 17 229
0	4087 53 2729 186715 14.097268435382 74.097268435382 2 1 10 11 101
vector 36 World.node[18].appl.middleware.ExampleService proof_size ETV
vector 37 World.node[18].appl.middleware.ExampleService proof_requested ETV
9	4287 27 79208 79208 53.000515914988 53.000515914988 1 10 10 10 100
8	4314 26 79208 79208 53.000515914988 53.000515914988 1 6 6 6 36
vector 38 World.node[15].appl.middleware.ExampleService proof_size ETV
vector 39 World.node[15].appl.middleware.ExampleService proof_requested ETV
vector 40 World.node[29].appl.middleware.ExampleService proof_size ETV
vector 41 World.node[29].appl.middleware.ExampleService proof_requested ETV
vector 42 World.node[26].appl.middleware.ExampleService proof_size ETV
vector 43 World.node[26].appl.middleware.ExampleService proof_requested ETV
vector 44 World.node[24].appl.middleware.ExampleService proof_size ETV
vector 45 World.node[24].appl.middleware.ExampleService proof_requested ETV
25	4928 29 263310 263310 84.084109200723 84.084109200723 1 17 17 17 289
24	4957 28 263310 263310 84.084109200723 84.084109200723 1 9 9 9 81
vector 46 World.node[22].appl.middleware.ExampleService proof_size ETV
vector 47 World.node[22].appl.middleware.ExampleService proof_requested ETV
vector 48 World.node[33].appl.middleware.ExampleService proof_size ETV
vector 49 World.node[33].appl.middleware.ExampleService proof_requested ETV
vector 50 World.node[23].appl.middleware.ExampleService proof_size ETV
vector 51 World.node[23].appl.middleware.ExampleService proof_requested ETV
35	5426 29 359103 359103 96.081475073355 96.081475073355 1 18 18 18 324
34	5455 28 359103 359103 96.081475073355 96.081475073355 1 9 9 9 81
vector 52 World.node[34].appl.middleware.ExampleService proof_size ETV
vector 53 World.node[34].appl.middleware.ExampleService proof_requested ETV
47	5630 31 1041964 1041964 144.042278401437 144.042278401437 1 23 23 23 529
46	5661 31 1041964 1041964 144.042278401437 144.042278401437 1 12 12 12 144
vector 54 World.node[25].appl.middleware.ExampleService proof_size ETV
vector 55 World.node[25].appl.middleware.ExampleService proof_requested ETV
vector 56 World.node[31].appl.middleware.ExampleService proof_size ETV
vector 57 World.node[31].appl.middleware.ExampleService proof_requested ETV
7	5986 56 63573 491019 49.156752505153 109.056752505153 2 10 21 31 541
6	6042 54 63573 491019 49.156752505153 109.056752505153 2 2 8 10 68
vector 58 World.node[32].appl.middleware.ExampleService proof_size ETV
vector 59 World.node[32].appl.middleware.ExampleService proof_requested ETV
vector 60 World.node[27].appl.middleware.ExampleService proof_size ETV
vector 61 World.node[27].appl.middleware.ExampleService proof_requested ETV
vector 62 World.node[35].appl.middleware.ExampleService proof_size ETV
vector 63 World.node[35].appl.middleware.ExampleService proof_requested ETV
vector 64 World.node[38].appl.middleware.ExampleService proof_size ETV
vector 65 World.node[38].appl.middleware.ExampleService proof_requested ETV
vector 66 World.node[30].appl.middleware.ExampleService proof_size ETV
vector 67 World.node[30].appl.middleware.ExampleService proof_requested ETV
vector 68 World.node[28].appl.middleware.ExampleService proof_size ETV
vector 69 World.node[28].appl.middleware.ExampleService proof_requested ETV
21	6978 59 237635 964182 81.040538835432 141.040538835432 2 17 26 43 965
20	7037 58 237635 964182 81.040538835432 141.040538835432 2 6 11 17 157
vector 70 World.node[37].appl.middleware.ExampleService proof_size ETV
vector 71 World.node[37].appl.middleware.ExampleService proof_requested ETV
vector 72 World.node[42].appl.middleware.ExampleService proof_size ETV
vector 73 World.node[42].appl.middleware.ExampleService proof_requested ETV
vector 74 World.node[40].appl.middleware.ExampleService proof_size ETV
vector 75 World.node[40].appl.middleware.ExampleService proof_requested ETV
vector 76 World.node[41].appl.middleware.ExampleService proof_size ETV
vector 77 World.node[41].appl.middleware.ExampleService proof_requested ETV
63	7683 31 1401042 1401042 162.061108844797 162.061108844797 1 29 29 29 841
62	7714 31 1401042 1401042 162.061108844797 162.061108844797 1 10 10 10 100
39	7745 61 510250 1586696 111.073958206223 171.073958206223 2 21 26 47 1117
38	7806 60 510250 1586696 111.073958206223 171.073958206223 2 9 11 20 202
15	7866 56 192448 853773 75.04190922745 135.04190922745 2 8 26 34 740
14	7922 56 192448 853773 75.04190922745 135.04190922745 2 3 14 17 205
75	7978 31 1785150 1785150 182.003651083633 182.003651083633 1 31 31 31 961
74	8009 30 1785150 1785150 182.003651083633 182.003651083633 1 8 8 8 64
vector 78 World.node[36].appl.middleware.ExampleService proof_size ETV
vector 79 World.node[36].appl.middleware.ExampleService proof_requested ETV
17	8186 58 198759 870507 76.001274420507 136.001274420507 2 9 25 34 706
16	8244 57 198759 870507 76.001274420507 136.001274420507 2 0 3 3 9
29	8301 60 277639 1089115 86.095459119533 146.095459119533 2 16 26 42 932
28	8361 59 277639 1089115 86.095459119533 146.095459119533 2 9 14 23 277
11	8420 89 89478 1664429 55.044994450035 175.044994450035 3 12 30 62 1444
10	8509 87 89478 1664429 55.044994450035 175.044994450035 3 4 16 29 353
67	8596 31 1425801 1425801 163.073869898519 163.073869898519 1 26 26 26 676
66	8627 30 1425801 1425801 163.073869898519 163.073869898519 1 2 2 2 4
vector 80 World.node[46].appl.middleware.ExampleService proof_size ETV
vector 81 World.node[46].appl.middleware.ExampleService proof_requested ETV
vector 82 World.node[39].appl.middleware.ExampleService proof_size ETV
vector 83 World.node[39].appl.middleware.ExampleService proof_requested ETV
vector 84 World.node[53].appl.middleware.ExampleService proof_size ETV
vector 85 World.node[53].appl.middleware.ExampleService proof_requested ETV
vector 86 World.node[48].appl.middleware.ExampleService proof_size ETV
vector 87 World.node[48].appl.middleware.ExampleService proof_requested ETV
vector 88 World.node[44].appl.middleware.ExampleService proof_size ETV
vector 89 World.node[44].appl.middleware.ExampleService proof_requested ETV
vector 90 World.node[45].appl.middleware.ExampleService proof_size ETV
vector 91 World.node[45].appl.middleware.ExampleService proof_requested ETV
vector 92 World.node[52].appl.middleware.ExampleService proof_size ETV
vector 93 World.node[52].appl.middleware.ExampleService proof_requested ETV
vector 94 World.node[51].appl.middleware.ExampleService proof_size ETV
vector 95 World.node[51].appl.middleware.ExampleService proof_requested ETV
61	9833 62 1375955 2791703 161.024568438879 221.024568438879 2 24 29 53 1417
60	9895 60 1375955 2791703 161.024568438879 221.024568438879 2 6 9 15 117
vector 96 World.node[43].appl.middleware.ExampleService proof_size ETV
vector 97 World.node[43].appl.middleware.ExampleService proof_requested ETV
49	10102 62 1065132 2365288 145.032567802328 205.032567802328 2 21 27 48 1170
48	10164 62 1065132 2365288 145.032567802328 205.032567802328 2 10 13 23 269
vector 98 World.node[54].appl.middleware.ExampleService proof_size ETV
vector 99 World.node[54].appl.middleware.ExampleService proof_requested ETV
vector 100 World.node[49].appl.middleware.ExampleService proof_size ETV
vector 101 World.node[49].appl.middleware.ExampleService proof_requested ETV
57	10522 62 1197524 2543091 152.017666098336 212.017666098336 2 28 33 61 1873
56	10584 60 1197524 2543091 152.017666098336 212.017666098336 2 5 8 13 89
45	10644 59 883072 2155908 137.00108278729 197.00108278729 2 27 30 57 1629
44	10703 59 883072 2155908 137.00108278729 197.00108278729 2 11 14 25 317
27	10762 88 276918 2392207 86.07114040805 206.07114040805 3 15 28 70 1738
26	10850 85 276918 2392207 86.07114040805 206.07114040805 3 6 9 21 153
85	10935 31 2665933 2665933 216.073560281447 216.073560281447 1 27 27 27 729
84	10966 31 2665933 2665933 216.073560281447 216.073560281447 1 10 10 10 100
vector 102 World.node[47].appl.middleware.ExampleService proof_size ETV
vector 103 World.node[47].appl.middleware.ExampleService proof_requested ETV
vector 104 World.node[58].appl.middleware.ExampleService proof_size ETV
vector 105 World.node[58].appl.middleware.ExampleService proof_requested ETV
vector 106 World.node[50].appl.middleware.ExampleService proof_size ETV
vector 107 World.node[50].appl.middleware.ExampleService proof_requested ETV
43	11444 61 834948 2092814 134.094621369219 194.094621369219 2 16 31 47 1217
42	11505 60 834948 2092814 134.094621369219 194.094621369219 2 8 13 21 233
65	11565 62 1422699 2858965 163.011153367441 223.011153367441 2 28 34 62 1940
64	11627 60 1422699 2858965 163.011153367441 223.011153367441 2 3 8 11 73
vector 108 World.node[59].appl.middleware.ExampleService proof_size ETV
vector 109 World.node[59].appl.middleware.ExampleService proof_requested ETV
vector 110 World.node[61].appl.middleware.ExampleService proof_size ETV
vector 111 World.node[61].appl.middleware.ExampleService proof_requested ETV
99	11985 30 3213382 3213382 234.06189130058 234.06189130058 1 36 36 36 1296
98	12015 30 3213382 3213382 234.06189130058 234.06189130058 1 17 17 17 289
19	12045 121 230731 3955566 80.095378547255 260.095378547255 4 17 37 112 3348
18	12166 121 230731 3955566 80.095378547255 260.095378547255 4 11 13 50 628
5	12287 115 48012 2920564 45.013752784627 225.013752784627 4 8 28 79 1777
4	12402 113 48012 2920564 45.013752784627 225.013752784627 4 4 11 31 267
79	12515 62 2001034 3676734 190.095934270835 250.095934270835 2 28 35 63 2009
78	12577 62 2001034 3676734 190.095934270835 250.095934270835 2 14 15 29 421
vector 112 World.node[55].appl.middleware.ExampleService proof_size ETV
vector 113 World.node[55].appl.middleware.ExampleService proof_requested ETV
55	12788 90 1187962 4262266 151.08509180157 271.08509180157 3 29 37 98 3234
54	12878 88 1187962 4262266 151.08509180157 271.08509180157 3 0 14 21 245
31	12966 122 284559 4145927 87.025891292468 267.025891292468 4 13 35 103 2907
30	13088 120 284559 4145927 87.025891292468 267.025891292468 4 8 12 39 393
37	13208 92 477290 3027635 108.070765523612 228.070765523612 3 21 35 86 2566
36	13300 91 477290 3027635 108.070765523612 228.070765523612 3 8 17 36 474
vector 114 World.node[62].appl.middleware.ExampleService proof_size ETV
vector 115 World.node[62].appl.middleware.ExampleService proof_requested ETV
vector 116 World.node[56].appl.middleware.ExampleService proof_size ETV
vector 117 World.node[56].appl.middleware.ExampleService proof_requested ETV
69	13689 93 1439261 4683572 164.037583551882 284.037583551882 3 19 34 76 2046
68	13782 91 1439261 4683572 164.037583551882 284.037583551882 3 7 23 39 659
vector 118 World.node[57].appl.middleware.ExampleService proof_size ETV
vector 119 World.node[57].appl.middleware.ExampleService proof_requested ETV
vector 120 World.node[60].appl.middleware.ExampleService proof_size ETV
vector 121 World.node[60].appl.middleware.ExampleService proof_requested ETV
117	14171 32 4690470 4690470 284.098079712153 284.098079712153 1 36 36 36 1296
116	14203 31 4690470 4690470 284.098079712153 284.098079712153 1 0 0 0 0
13	14234 121 152378 3605121 68.020182836498 248.020182836498 4 14 35 108 3222
12	14355 119 152378 3605121 68.020182836498 248.020182836498 4 2 10 27 229
vector 122 World.node[69].appl.middleware.ExampleService proof_size ETV
vector 123 World.node[69].appl.middleware.ExampleService proof_requested ETV
vector 124 World.node[64].appl.middleware.ExampleService proof_size ETV
vector 125 World.node[64].appl.middleware.ExampleService proof_requested ETV
vector 126 World.node[66].appl.middleware.ExampleService proof_size ETV
vector 127 World.node[66].appl.middleware.ExampleService proof_requested ETV
vector 128 World.node[73].appl.middleware.ExampleService proof_size ETV
vector 129 World.node[73].appl.middleware.ExampleService proof_requested ETV
vector 130 World.node[70].appl.middleware.ExampleService proof_size ETV
vector 131 World.node[70].appl.middleware.ExampleService proof_requested ETV
vector 132 World.node[65].appl.middleware.ExampleService proof_size ETV
vector 133 World.node[65].appl.middleware.ExampleService proof_requested ETV
vector 134 World.node[71].appl.middleware.ExampleService proof_size ETV
vector 135 World.node[71].appl.middleware.ExampleService proof_requested ETV
83	15517 62 2527240 4260062 211.057093752036 271.057093752036 2 28 37 65 2153
82	15579 61 2527240 4260062 211.057093752036 271.057093752036 2 9 14 23 277
vector 136 World.node[67].appl.middleware.ExampleService proof_size ETV
vector 137 World.node[67].appl.middleware.ExampleService proof_requested ETV
137	15789 32 5661703 5661703 317.052751219878 317.052751219878 1 30 30 30 900
136	15821 31 5661703 5661703 317.052751219878 317.052751219878 1 9 9 9 81
vector 138 World.node[72].appl.middleware.ExampleService proof_size ETV
vector 139 World.node[72].appl.middleware.ExampleService proof_requested ETV
vector 140 World.node[74].appl.middleware.ExampleService proof_size ETV
vector 141 World.node[74].appl.middleware.ExampleService proof_requested ETV
119	16150 32 4784920 4784920 287.052477743477 287.052477743477 1 32 32 32 1024
118	16182 32 4784920 4784920 287.052477743477 287.052477743477 1 13 13 13 169
59	16214 93 1309784 4494190 158.028351757722 278.028351757722 3 28 35 94 2970
58	16307 93 1309784 4494190 158.028351757722 278.028351757722 3 10 11 32 342
vector 142 World.node[76].appl.middleware.ExampleService proof_size ETV
vector 143 World.node[76].appl.middleware.ExampleService proof_requested ETV
51	16549 124 1130331 6035743 148.051071145781 328.051071145781 4 21 37 115 3435
50	16673 123 1130331 6035743 148.051071145781 328.051071145781 4 5 17 47 639
vector 144 World.node[83].appl.middleware.ExampleService proof_size ETV
vector 145 World.node[83].appl.middleware.ExampleService proof_requested ETV
vector 146 World.node[75].appl.middleware.ExampleService proof_size ETV
vector 147 World.node[75].appl.middleware.ExampleService proof_requested ETV
93	17094 93 2972326 6727724 226.081442063302 346.081442063302 3 31 38 102 3494
92	17187 90 2972326 6727724 226.081442063302 346.081442063302 3 5 7 18 110
vector 148 World.node[82].appl.middleware.ExampleService proof_size ETV
vector 149 World.node[82].appl.middleware.ExampleService proof_requested ETV
71	17426 124 1528737 6808318 168.061647167266 348.061647167266 4 21 32 108 2982
70	17550 123 1528737 6808318 168.061647167266 348.061647167266 4 8 13 44 502
97	17673 90 3028381 6812272 228.07782451096 348.07782451096 3 21 39 93 3051
96	17763 89 3028381 6812272 228.07782451096 348.07782451096 3 0 15 30 450
105	17852 64 3582884 5370675 247.097711405344 307.097711405344 2 23 29 52 1370
104	17916 62 3582884 5370675 247.097711405344 307.097711405344 2 3 3 6 18
23	17978 152 238010 5801224 81.057098338986 321.057098338986 5 16 39 149 4757
22	18130 149 238010 5801224 81.057098338986 321.057098338986 5 1 20 47 677
vector 150 World.node[77].appl.middleware.ExampleService proof_size ETV
vector 151 World.node[77].appl.middleware.ExampleService proof_requested ETV
109	18428 64 4005128 5828463 262.013987056562 322.013987056562 2 34 38 72 2600
108	18492 64 4005128 5828463 262.013987056562 322.013987056562 2 12 14 26 340
103	18556 64 3545276 5324889 246.004549138062 306.004549138062 2 31 35 66 2186
102	18620 64 3545276 5324889 246.004549138062 306.004549138062 2 10 14 24 296
vector 152 World.node[91].appl.middleware.ExampleService proof_size ETV
vector 153 World.node[91].appl.middleware.ExampleService proof_requested ETV
vector 154 World.node[88].appl.middleware.ExampleService proof_size ETV
vector 155 World.node[88].appl.middleware.ExampleService proof_requested ETV
vector 156 World.node[92].appl.middleware.ExampleService proof_size ETV
vector 157 World.node[92].appl.middleware.ExampleService proof_requested ETV
101	19131 96 3266717 7101517 236.031311217509 356.031311217509 3 31 41 105 3731
100	19227 95 3266717 7101517 236.031311217509 356.031311217509 3 9 10 29 281
vector 158 World.node[87].appl.middleware.ExampleService proof_size ETV
vector 159 World.node[87].appl.middleware.ExampleService proof_requested ETV
vector 160 World.node[85].appl.middleware.ExampleService proof_size ETV
vector 161 World.node[85].appl.middleware.ExampleService proof_requested ETV
vector 162 World.node[78].appl.middleware.ExampleService proof_size ETV
vector 163 World.node[78].appl.middleware.ExampleService proof_requested ETV
113	19769 64 4466894 6360517 277.017357025878 337.017357025878 2 36 40 76 2896
112	19833 64 4466894 6360517 277.017357025878 337.017357025878 2 15 21 36 666
vector 164 World.node[80].appl.middleware.ExampleService proof_size ETV
vector 165 World.node[80].appl.middleware.ExampleService proof_requested ETV
77	20046 124 1844168 7398470 184.077920435672 364.077920435672 4 24 38 118 3596
76	20170 123 1844168 7398470 184.077920435672 364.077920435672 4 9 16 47 581
vector 166 World.node[84].appl.middleware.ExampleService proof_size ETV
vector 167 World.node[84].appl.middleware.ExampleService proof_requested ETV
vector 168 World.node[89].appl.middleware.ExampleService proof_size ETV
vector 169 World.node[89].appl.middleware.ExampleService proof_requested ETV
53	20591 124 1149656 6064169 149.042793385941 329.042793385941 4 27 38 127 4103
52	20715 122 1149656 6064169 149.042793385941 329.042793385941 4 0 14 34 414
121	20837 62 4785710 6755812 287.05772266821 347.05772266821 2 33 38 71 2533
120	20899 61 4785710 6755812 287.05772266821 347.05772266821 2 0 14 14 196
73	20960 124 1663135 7059380 175.019739585533 355.019739585533 4 17 42 115 3719
72	21084 121 1663135 7059380 175.019739585533 355.019739585533 4 5 10 28 210
vector 170 World.node[81].appl.middleware.ExampleService proof_size ETV
vector 171 World.node[81].appl.middleware.ExampleService proof_requested ETV
vector 172 World.node[99].appl.middleware.ExampleService proof_size ETV
vector 173 World.node[99].appl.middleware.ExampleService proof_requested ETV
vector 174 World.node[90].appl.middleware.ExampleService proof_size ETV
vector 175 World.node[90].appl.middleware.ExampleService proof_requested ETV
vector 176 World.node[86].appl.middleware.ExampleService proof_size ETV
vector 177 World.node[86].appl.middleware.ExampleService proof_requested ETV
139	21801 64 5803632 8137679 321.077482773317 381.077482773317 2 28 40 68 2384
138	21865 64 5803632 8137679 321.077482773317 381.077482773317 2 18 21 39 765
vector 178 World.node[94].appl.middleware.ExampleService proof_size ETV
vector 179 World.node[94].appl.middleware.ExampleService proof_requested ETV
41	22078 154 796624 7746676 132.061391671072 372.061391671072 5 25 38 164 5504
40	22232 154 796624 7746676 132.061391671072 372.061391671072 5 11 19 73 1103
81	22386 124 2500319 8497930 210.005863434123 390.005863434123 4 28 39 135 4635
80	22510 122 2500319 8497930 210.005863434123 390.005863434123 4 0 17 38 522
vector 180 World.node[104].appl.middleware.ExampleService proof_size ETV
vector 181 World.node[104].appl.middleware.ExampleService proof_requested ETV
95	22783 124 2993684 9207752 227.049161096173 407.049161096173 4 29 43 144 5314
94	22907 124 2993684 9207752 227.049161096173 407.049161096173 4 10 19 57 861
vector 182 World.node[103].appl.middleware.ExampleService proof_size ETV
vector 183 World.node[103].appl.middleware.ExampleService proof_requested ETV
vector 184 World.node[93].appl.middleware.ExampleService proof_size ETV
vector 185 World.node[93].appl.middleware.ExampleService proof_requested ETV
171	23331 32 8254931 8254931 384.038954712846 384.038954712846 1 40 40 40 1600
170	23363 32 8254931 8254931 384.038954712846 384.038954712846 1 22 22 22 484
vector 186 World.node[96].appl.middleware.ExampleService proof_size ETV
vector 187 World.node[96].appl.middleware.ExampleService proof_requested ETV
vector 188 World.node[95].appl.middleware.ExampleService proof_size ETV
vector 189 World.node[95].appl.middleware.ExampleService proof_requested ETV
vector 190 World.node[97].appl.middleware.ExampleService proof_size ETV
vector 191 World.node[97].appl.middleware.ExampleService proof_requested ETV
vector 192 World.node[105].appl.middleware.ExampleService proof_size ETV
vector 193 World.node[105].appl.middleware.ExampleService proof_requested ETV
163	23993 32 7599412 7599412 369.013850898342 369.013850898342 1 38 38 38 1444
162	24025 32 7599412 7599412 369.013850898342 369.013850898342 1 14 14 14 196
vector 194 World.node[108].appl.middleware.ExampleService proof_size ETV
vector 195 World.node[108].appl.middleware.ExampleService proof_requested ETV
vector 196 World.node[101].appl.middleware.ExampleService proof_size ETV
vector 197 World.node[101].appl.middleware.ExampleService proof_requested ETV
vector 198 World.node[100].appl.middleware.ExampleService proof_size ETV
vector 199 World.node[100].appl.middleware.ExampleService proof_requested ETV
vector 200 World.node[102].appl.middleware.ExampleService proof_size ETV
vector 201 World.node[102].appl.middleware.ExampleService proof_requested ETV
89	24661 124 2713678 8859994 218.069296457781 398.069296457781 4 31 45 149 5655
88	24785 122 2713678 8859994 218.069296457781 398.069296457781 4 1 21 45 719
133	24907 97 5579407 10476559 314.089062636904 434.089062636904 3 36 40 113 4265
132	25004 97 5579407 10476559 314.089062636904 434.089062636904 3 13 19 47 755
vector 202 World.node[98].appl.middleware.ExampleService proof_size ETV
vector 203 World.node[98].appl.middleware.ExampleService proof_requested ETV
vector 204 World.node[107].appl.middleware.ExampleService proof_size ETV
vector 205 World.node[107].appl.middleware.ExampleService proof_requested ETV
127	25401 96 5164433 9793918 300.073788884934 420.073788884934 3 28 43 111 4233
126	25497 95 5164433 9793918 300.073788884934 420.073788884934 3 9 16 36 458
vector 206 World.node[109].appl.middleware.ExampleService proof_size ETV
vector 207 World.node[109].appl.middleware.ExampleService proof_requested ETV
111	25743 125 4207600 11170183 269.03080789838 449.03080789838 4 37 49 165 6891
110	25868 123 4207600 11170183 269.03080789838 449.03080789838 4 6 17 44 558
141	25991 97 5833359 10853165 322.077648581425 442.077648581425 3 38 45 122 4990
140	26088 95 5833359 10853165 322.077648581425 442.077648581425 3 0 23 29 565
vector 208 World.node[112].appl.middleware.ExampleService proof_size ETV
vector 209 World.node[112].appl.middleware.ExampleService proof_requested ETV
vector 210 World.node[106].appl.middleware.ExampleService proof_size ETV
vector 211 World.node[106].appl.middleware.ExampleService proof_requested ETV
181	26485 32 9202905 9202905 407.004039010662 407.004039010662 1 39 39 39 1521
180	26517 32 9202905 9202905 407.004039010662 407.004039010662 1 14 14 14 196
vector 212 World.node[118].appl.middleware.ExampleService proof_size ETV
vector 213 World.node[118].appl.middleware.ExampleService proof_requested ETV
vector 214 World.node[111].appl.middleware.ExampleService proof_size ETV
vector 215 World.node[111].appl.middleware.ExampleService proof_requested ETV
143	26851 64 6513743 8970603 341.059817155311 401.059817155311 2 32 44 76 2960
142	26915 64 6513743 8970603 341.059817155311 401.059817155311 2 11 20 31 521
147	26979 64 6878809 9342798 350.057982710563 410.057982710563 2 39 44 83 3457
146	27043 64 6878809 9342798 350.057982710563 410.057982710563 2 14 17 31 485
vector 216 World.node[115].appl.middleware.ExampleService proof_size ETV
vector 217 World.node[115].appl.middleware.ExampleService proof_requested ETV
125	27258 96 5138698 9749743 299.057631353335 419.057631353335 3 32 43 114 4394
124	27354 96 5138698 9749743 299.057631353335 419.057631353335 3 13 17 47 747
135	27450 97 5579682 10477224 314.093629894475 434.093629894475 3 37 43 119 4739
134	27547 96 5579682 10477224 314.093629894475 434.093629894475 3 9 16 39 533
161	27643 65 7516063 10124383 367.030721770483 427.030721770483 2 21 40 61 2041
160	27708 65 7516063 10124383 367.030721770483 427.030721770483 2 11 18 29 445
vector 218 World.node[116].appl.middleware.ExampleService proof_size ETV
vector 219 World.node[116].appl.middleware.ExampleService proof_requested ETV
123	27924 96 5119753 9710862 298.067404953251 418.067404953251 3 34 43 119 4769
122	28020 95 5119753 9710862 298.067404953251 418.067404953251 3 0 16 30 452
87	28115 156 2712916 11640373 218.025949385623 458.025949385623 5 26 46 183 6977
86	28271 155 2712916 11640373 218.025949385623 458.025949385623 5 3 24 71 1243
vector 220 World.node[117].appl.middleware.ExampleService proof_size ETV
vector 221 World.node[117].appl.middleware.ExampleService proof_requested ETV
145	28577 97 6764477 12174078 347.082328819996 467.082328819996 3 31 48 122 5114
144	28674 95 6764477 12174078 347.082328819996 467.082328819996 3 0 18 19 325
179	28769 63 8779468 11542862 396.03644242587 456.03644242587 2 42 46 88 3880
178	28832 63 8779468 11542862 396.03644242587 456.03644242587 2 20 22 42 884
vector 222 World.node[110].appl.middleware.ExampleService proof_size ETV
vector 223 World.node[110].appl.middleware.ExampleService proof_requested ETV
vector 224 World.node[120].appl.middleware.ExampleService proof_size ETV
vector 225 World.node[120].appl.middleware.ExampleService proof_requested ETV
vector 226 World.node[113].appl.middleware.ExampleService proof_size ETV
vector 227 World.node[113].appl.middleware.ExampleService proof_requested ETV
183	29348 65 9398553 12401259 411.079485544795 471.079485544795 2 43 44 87 3785
182	29413 65 9398553 12401259 411.079485544795 471.079485544795 2 10 20 30 500
vector 228 World.node[121].appl.middleware.ExampleService proof_size ETV
vector 229 World.node[121].appl.middleware.ExampleService proof_requested ETV
193	29629 65 9749747 12775868 419.061173475813 479.061173475813 2 26 43 69 2525
192	29694 64 9749747 12775868 419.061173475813 479.061173475813 2 2 15 17 229
215	29758 33 11597599 11597599 457.048228522693 457.048228522693 1 48 48 48 2304
214	29791 32 11597599 11597599 457.048228522693 457.048228522693 1 0 0 0 0
107	29823 162 3694605 13333954 251.010960295028 491.010960295028 5 35 46 204 8434
106	29985 162 3694605 13333954 251.010960295028 491.010960295028 5 13 24 87 1597
vector 230 World.node[114].appl.middleware.ExampleService proof_size ETV
vector 231 World.node[114].appl.middleware.ExampleService proof_requested ETV
195	30298 66 10076498 13119938 426.043478424544 486.043478424544 2 38 40 78 3044
194	30364 66 10076498 13119938 426.043478424544 486.043478424544 2 15 17 32 514
159	30430 98 7482435 13125353 366.081300530559 486.081300530559 3 36 44 118 4676
158	30528 98 7482435 13125353 366.081300530559 486.081300530559 3 13 27 56 1154
vector 232 World.node[123].appl.middleware.ExampleService proof_size ETV
vector 233 World.node[123].appl.middleware.ExampleService proof_requested ETV
vector 234 World.node[124].appl.middleware.ExampleService proof_size ETV
vector 235 World.node[124].appl.middleware.ExampleService proof_requested ETV
vector 236 World.node[119].appl.middleware.ExampleService proof_size ETV
vector 237 World.node[119].appl.middleware.ExampleService proof_requested ETV
155	31079 97 7348288 12953863 363.023701522057 483.023701522057 3 29 43 111 4211
154	31176 97 7348288 12953863 363.023701522057 483.023701522057 3 10 19 40 582
197	31273 66 10123463 13169195 427.025563276513 487.025563276513 2 31 38 69 2405
196	31339 66 10123463 13169195 427.025563276513 487.025563276513 2 11 18 29 445
129	31405 130 5421073 13254488 309.015337677742 489.015337677742 4 32 45 155 6093
128	31535 129 5421073 13254488 309.015337677742 489.015337677742 4 0 13 36 434
vector 238 World.node[128].appl.middleware.ExampleService proof_size ETV
vector 239 World.node[128].appl.middleware.ExampleService proof_requested ETV
209	31815 33 11258555 11258555 451.010432078806 451.010432078806 1 47 47 47 2209
208	31848 32 11258555 11258555 451.010432078806 451.010432078806 1 4 4 4 16
vector 240 World.node[125].appl.middleware.ExampleService proof_size ETV
vector 241 World.node[125].appl.middleware.ExampleService proof_requested ETV
vector 242 World.node[129].appl.middleware.ExampleService proof_size ETV
vector 243 World.node[129].appl.middleware.ExampleService proof_requested ETV
149	32182 97 6914864 12388210 351.009305829555 471.009305829555 3 27 41 108 4010
148	32279 95 6914864 12388210 351.009305829555 471.009305829555 3 0 12 21 225
205	32374 66 10890775 13794410 443.093763545854 503.093763545854 2 19 44 63 2297
204	32440 64 10890775 13794410 443.093763545854 503.093763545854 2 5 9 14 106
115	32504 129 4690221 12011109 284.097538457718 464.097538457718 4 35 42 155 6033
114	32633 126 4690221 12011109 284.097538457718 464.097538457718 4 0 18 27 389
151	32759 97 7181012 12733321 358.035451434366 478.035451434366 3 38 43 119 4737
150	32856 97 7181012 12733321 358.035451434366 478.035451434366 3 10 18 40 568
213	32953 66 11595955 14345366 457.037393920892 517.037393920892 2 34 34 68 2312
212	33019 66 11595955 14345366 457.037393920892 517.037393920892 2 12 17 29 433
vector 244 World.node[122].appl.middleware.ExampleService proof_size ETV
vector 245 World.node[122].appl.middleware.ExampleService proof_requested ETV
229	33236 33 13207366 13207366 488.055153364665 488.055153364665 1 36 36 36 1296
228	33269 33 13207366 13207366 488.055153364665 488.055153364665 1 13 13 13 169
91	33302 188 2890453 14595487 224.064629158052 524.064629158052 6 32 44 226 8650
90	33490 188 2890453 14595487 224.064629158052 524.064629158052 6 14 23 105 1895
vector 246 World.node[127].appl.middleware.ExampleService proof_size ETV
vector 247 World.node[127].appl.middleware.ExampleService proof_requested ETV
vector 248 World.node[126].appl.middleware.ExampleService proof_size ETV
vector 249 World.node[126].appl.middleware.ExampleService proof_requested ETV
211	33980 66 11305302 14158864 452.065406368207 512.065406368207 2 35 48 83 3529
210	34046 66 11305302 14158864 452.065406368207 512.065406368207 2 11 18 29 445
235	34112 33 13718861 13718861 501.087156276847 501.087156276847 1 40 40 40 1600
234	34145 33 13718861 13718861 501.087156276847 501.087156276847 1 13 13 13 169
177	34178 98 8497928 14077899 390.001958424924 510.001958424924 3 34 47 121 4965
176	34276 97 8497928 14077899 390.001958424924 510.001958424924 3 6 14 31 353
169	34373 98 8085925 13677267 380.038239619182 500.038239619182 3 40 46 128 5480
168	34471 98 8085925 13677267 380.038239619182 500.038239619182 3 13 19 46 726
201	34569 66 10437595 13419784 433.084511548234 493.084511548234 2 40 45 85 3625
200	34635 66 10437595 13419784 433.084511548234 493.084511548234 2 13 19 32 530
153	34701 130 7277247 15207258 361.017416851851 541.017416851851 4 13 40 132 4890
152	34831 128 7277247 15207258 361.017416851851 541.017416851851 4 2 13 35 375
vector 250 World.node[136].appl.middleware.ExampleService proof_size ETV
vector 251 World.node[136].appl.middleware.ExampleService proof_requested ETV
vector 252 World.node[133].appl.middleware.ExampleService proof_size ETV
vector 253 World.node[133].appl.middleware.ExampleService proof_requested ETV
vector 254 World.node[132].appl.middleware.ExampleService proof_size ETV
vector 255 World.node[132].appl.middleware.ExampleService proof_requested ETV
245	35412 33 14931969 14931969 533.043097358686 533.043097358686 1 41 41 41 1681
244	35445 33 14931969 14931969 533.043097358686 533.043097358686 1 18 18 18 324
237	35478 33 13760750 13760750 502.093488133652 502.093488133652 1 34 34 34 1156
236	35511 32 13760750 13760750 502.093488133652 502.093488133652 1 8 8 8 64
vector 256 World.node[131].appl.middleware.ExampleService proof_size ETV
vector 257 World.node[131].appl.middleware.ExampleService proof_requested ETV
165	35694 131 7749309 15609761 372.092914494616 552.092914494616 4 35 40 148 5494
164	35825 130 7749309 15609761 372.092914494616 552.092914494616 4 1 14 42 562
vector 258 World.node[137].appl.middleware.ExampleService proof_size ETV
vector 259 World.node[137].appl.middleware.ExampleService proof_requested ETV
vector 260 World.node[135].appl.middleware.ExampleService proof_size ETV
vector 261 World.node[135].appl.middleware.ExampleService proof_requested ETV
vector 262 World.node[130].appl.middleware.ExampleService proof_size ETV
vector 263 World.node[130].appl.middleware.ExampleService proof_requested ETV
199	36408 96 10269857 15524120 430.00934701662 550.00934701662 3 36 44 122 4996
198	36504 94 10269857 15524120 430.00934701662 550.00934701662 3 1 11 18 158
vector 264 World.node[134].appl.middleware.ExampleService proof_size ETV
vector 265 World.node[134].appl.middleware.ExampleService proof_requested ETV
247	36749 33 15119472 15119472 538.094816705864 538.094816705864 1 37 37 37 1369
246	36782 33 15119472 15119472 538.094816705864 538.094816705864 1 15 15 15 225
249	36815 33 15150187 15150187 539.089545531524 539.089545531524 1 37 37 37 1369
248	36848 33 15150187 15150187 539.089545531524 539.089545531524 1 17 17 17 289
221	36881 66 12485123 14931370 473.030518377316 533.030518377316 2 41 46 87 3797
220	36947 66 12485123 14931370 473.030518377316 533.030518377316 2 27 34 61 1885
261	37013 32 16035323 16035323 564.08932048406 564.08932048406 1 39 39 39 1521
260	37045 32 16035323 16035323 564.08932048406 564.08932048406 1 14 14 14 196
vector 266 World.node[151].appl.middleware.ExampleService proof_size ETV
vector 267 World.node[151].appl.middleware.ExampleService proof_requested ETV
223	37228 66 12641083 15043243 476.070026731421 536.070026731421 2 40 41 81 3281
222	37294 65 12641083 15043243 476.070026731421 536.070026731421 2 9 13 22 250
vector 268 World.node[143].appl.middleware.ExampleService proof_size ETV
vector 269 World.node[143].appl.middleware.ExampleService proof_requested ETV
vector 270 World.node[138].appl.middleware.ExampleService proof_size ETV
vector 271 World.node[138].appl.middleware.ExampleService proof_requested ETV
167	37661 131 7990442 15817741 378.020418961602 558.020418961602 4 26 45 143 5295
166	37792 129 7990442 15817741 378.020418961602 558.020418961602 4 8 15 46 566
173	37921 131 8302412 16059353 385.116043079365 565.016043079365 4 25 44 140 5142
172	38052 128 8302412 16059353 385.116043079365 565.016043079365 4 0 11 25 219
vector 272 World.node[139].appl.middleware.ExampleService proof_size ETV
vector 273 World.node[139].appl.middleware.ExampleService proof_requested ETV
vector 274 World.node[140].appl.middleware.ExampleService proof_size ETV
vector 275 World.node[140].appl.middleware.ExampleService proof_requested ETV
175	38482 131 8424138 16171725 388.037144259596 568.037144259596 4 30 46 150 5762
174	38613 131 8424138 16171725 388.037144259596 568.037144259596 4 10 13 49 607
vector 276 World.node[141].appl.middleware.ExampleService proof_size ETV
vector 277 World.node[141].appl.middleware.ExampleService proof_requested ETV
vector 278 World.node[144].appl.middleware.ExampleService proof_size ETV
vector 279 World.node[144].appl.middleware.ExampleService proof_requested ETV
vector 280 World.node[147].appl.middleware.ExampleService proof_size ETV
vector 281 World.node[147].appl.middleware.ExampleService proof_requested ETV
225	39197 99 12877399 17359339 481.038911718875 601.038911718875 3 20 40 99 3521
224	39296 97 12877399 17359339 481.038911718875 601.038911718875 3 0 19 28 442
267	39393 32 17056048 17056048 594.01419251014 594.01419251014 1 27 27 27 729
266	39425 32 17056048 17056048 594.01419251014 594.01419251014 1 16 16 16 256
vector 282 World.node[142].appl.middleware.ExampleService proof_size ETV
vector 283 World.node[142].appl.middleware.ExampleService proof_requested ETV
185	39608 131 9480293 17020136 413.063412036048 593.063412036048 4 38 44 168 7080
184	39739 131 9480293 17020136 413.063412036048 593.063412036048 4 16 25 84 1810
187	39870 131 9516674 17055499 414.007941278839 594.007941278839 4 33 44 160 6470
186	40001 131 9516674 17055499 414.007941278839 594.007941278839 4 10 26 66 1226
191	40132 131 9653109 17176754 417.009300388303 597.009300388303 4 20 42 137 4989
190	40263 130 9653109 17176754 417.009300388303 597.009300388303 4 1 24 51 923
189	40393 131 9526073 17066160 414.094979094155 594.094979094155 4 35 39 151 5711
188	40524 128 9526073 17066160 414.094979094155 594.094979094155 4 1 12 24 230
203	40652 99 10847373 15963948 442.025839007832 562.025839007832 3 34 44 116 4536
202	40751 97 10847373 15963948 442.025839007832 562.025839007832 3 7 11 27 251
vector 284 World.node[149].appl.middleware.ExampleService proof_size ETV
vector 285 World.node[149].appl.middleware.ExampleService proof_requested ETV
vector 286 World.node[146].appl.middleware.ExampleService proof_size ETV
vector 287 World.node[146].appl.middleware.ExampleService proof_requested ETV
vector 288 World.node[158].appl.middleware.ExampleService proof_size ETV
vector 289 World.node[158].appl.middleware.ExampleService proof_requested ETV
219	41301 99 12282889 16852879 469.056707752659 589.056707752659 3 36 44 120 4832
218	41400 98 12282889 16852879 469.056707752659 589.056707752659 3 9 25 48 902
vector 290 World.node[145].appl.middleware.ExampleService proof_size ETV
vector 291 World.node[145].appl.middleware.ExampleService proof_requested ETV
263	41649 33 16097966 16097966 566.053424828197 566.053424828197 1 37 37 37 1369
262	41682 33 16097966 16097966 566.053424828197 566.053424828197 1 11 11 11 121
vector 292 World.node[156].appl.middleware.ExampleService proof_size ETV
vector 293 World.node[156].appl.middleware.ExampleService proof_requested ETV
vector 294 World.node[152].appl.middleware.ExampleService proof_size ETV
vector 295 World.node[152].appl.middleware.ExampleService proof_requested ETV
243	42017 66 14233810 16374416 514.059191371012 574.059191371012 2 34 37 71 2525
242	42083 66 14233810 16374416 514.059191371012 574.059191371012 2 12 13 25 313
vector 296 World.node[153].appl.middleware.ExampleService proof_size ETV
vector 297 World.node[153].appl.middleware.ExampleService proof_requested ETV
vector 298 World.node[155].appl.middleware.ExampleService proof_size ETV
vector 299 World.node[155].appl.middleware.ExampleService proof_requested ETV
157	42451 163 7358628 17454850 363.096570974286 603.096570974286 5 36 41 188 7086
156	42614 161 7358628 17454850 363.096570974286 603.096570974286 5 8 20 59 789
253	42775 66 15681035 17857069 554.067275097244 614.067275097244 2 37 39 76 2890
252	42841 65 15681035 17857069 554.067275097244 614.067275097244 2 9 13 22 250
vector 300 World.node[148].appl.middleware.ExampleService proof_size ETV
vector 301 World.node[148].appl.middleware.ExampleService proof_requested ETV
131	43057 196 5422387 17691881 309.049395790766 609.049395790766 6 31 45 227 8781
130	43253 193 5422387 17691881 309.049395790766 609.049395790766 6 0 17 44 628
vector 302 World.node[160].appl.middleware.ExampleService proof_size ETV
vector 303 World.node[160].appl.middleware.ExampleService proof_requested ETV
vector 304 World.node[163].appl.middleware.ExampleService proof_size ETV
vector 305 World.node[163].appl.middleware.ExampleService proof_requested ETV
301	43748 33 18428789 18428789 636.088961845706 636.088961845706 1 35 35 35 1225
300	43781 32 18428789 18428789 636.088961845706 636.088961845706 1 8 8 8 64
227	43813 99 13169204 17620618 487.038596755639 607.038596755639 3 36 41 116 4498
226	43912 98 13169204 17620618 487.038596755639 607.038596755639 3 8 14 35 429
277	44010 33 17539908 17539908 605.080999214691 605.080999214691 1 35 35 35 1225
276	44043 33 17539908 17539908 605.080999214691 605.080999214691 1 14 14 14 196
vector 306 World.node[165].appl.middleware.ExampleService proof_size ETV
vector 307 World.node[165].appl.middleware.ExampleService proof_requested ETV
vector 308 World.node[171].appl.middleware.ExampleService proof_size ETV
vector 309 World.node[171].appl.middleware.ExampleService proof_requested ETV
vector 310 World.node[168].appl.middleware.ExampleService proof_size ETV
vector 311 World.node[168].appl.middleware.ExampleService proof_requested ETV
vector 312 World.node[157].appl.middleware.ExampleService proof_size ETV
vector 313 World.node[157].appl.middleware.ExampleService proof_requested ETV
239	44680 99 14083952 18266896 510.065302046249 630.065302046249 3 31 35 98 3210
238	44779 98 14083952 18266896 510.065302046249 630.065302046249 3 5 15 32 394
273	44877 66 17391233 19190175 602.003974616923 662.003974616923 2 35 38 73 2669
272	44943 64 17391233 19190175 602.003974616923 662.003974616923 2 4 5 9 41
vector 314 World.node[159].appl.middleware.ExampleService proof_size ETV
vector 315 World.node[159].appl.middleware.ExampleService proof_requested ETV
vector 316 World.node[169].appl.middleware.ExampleService proof_size ETV
vector 317 World.node[169].appl.middleware.ExampleService proof_requested ETV
vector 318 World.node[162].appl.middleware.ExampleService proof_size ETV
vector 319 World.node[162].appl.middleware.ExampleService proof_requested ETV
vector 320 World.node[172].appl.middleware.ExampleService proof_size ETV
vector 321 World.node[172].appl.middleware.ExampleService proof_requested ETV
vector 322 World.node[166].appl.middleware.ExampleService proof_size ETV
vector 323 World.node[166].appl.middleware.ExampleService proof_requested ETV
233	45762 132 13597459 19781332 498.078025191138 678.078025191138 4 30 39 139 4889
232	45894 131 13597459 19781332 498.078025191138 678.078025191138 4 7 15 48 614
vector 324 World.node[164].appl.middleware.ExampleService proof_size ETV
vector 325 World.node[164].appl.middleware.ExampleService proof_requested ETV
vector 326 World.node[170].appl.middleware.ExampleService proof_size ETV
vector 327 World.node[170].appl.middleware.ExampleService proof_requested ETV
231	46327 132 13483320 19651554 495.041495671147 675.041495671147 4 34 38 145 5265
230	46459 132 13483320 19651554 495.041495671147 675.041495671147 4 10 17 57 847
259	46591 99 15998946 19978226 563.058237668197 683.058237668197 3 33 35 102 3470
258	46690 98 15998946 19978226 563.058237668197 683.058237668197 3 8 18 37 509
295	46788 66 18192465 20166114 627.096452377993 687.096452377993 2 27 35 62 1954
294	46854 64 18192465 20166114 627.096452377993 687.096452377993 2 7 8 15 113
vector 328 World.node[167].appl.middleware.ExampleService proof_size ETV
vector 329 World.node[167].appl.middleware.ExampleService proof_requested ETV
241	47069 132 14123036 20369697 511.092779087368 691.092779087368 4 34 42 149 5589
240	47201 129 14123036 20369697 511.092779087368 691.092779087368 4 7 22 44 646
281	47330 66 17582668 19336730 606.096605213312 666.096605213312 2 26 37 63 2045
280	47396 65 17582668 19336730 606.096605213312 666.096605213312 2 0 11 11 121
293	47461 66 18145821 20069613 625.034693871741 685.034693871741 2 30 36 66 2196
292	47527 65 18145821 20069613 625.034693871741 685.034693871741 2 8 29 37 905
vector 330 World.node[177].appl.middleware.ExampleService proof_size ETV
vector 331 World.node[177].appl.middleware.ExampleService proof_requested ETV
vector 332 World.node[173].appl.middleware.ExampleService proof_size ETV
vector 333 World.node[173].appl.middleware.ExampleService proof_requested ETV
315	47894 33 19611272 19611272 674.013975182059 674.013975182059 1 34 34 34 1156
314	47927 32 19611272 19611272 674.013975182059 674.013975182059 1 0 0 0 0
297	47959 66 18295825 20368171 631.081237687659 691.081237687659 2 35 41 76 2906
296	48025 66 18295825 20368171 631.081237687659 691.081237687659 2 11 16 27 377
265	48091 99 16239495 20312830 570.022188255936 690.022188255936 3 28 42 100 3448
264	48190 99 16239495 20312830 570.022188255936 690.022188255936 3 17 23 62 1302
207	48289 165 11169475 20259916 449.027767476137 689.027767476137 5 35 43 193 7493
206	48454 162 11169475 20259916 449.027767476137 689.027767476137 5 0 17 44 534
vector 334 World.node[182].appl.middleware.ExampleService proof_size ETV
vector 335 World.node[182].appl.middleware.ExampleService proof_requested ETV
vector 336 World.node[179].appl.middleware.ExampleService proof_size ETV
vector 337 World.node[179].appl.middleware.ExampleService proof_requested ETV
251	48918 96 15648980 19590702 553.08504881917 673.08504881917 3 21 39 96 3258
250	49014 95 15648980 19590702 553.08504881917 673.08504881917 3 6 18 34 460
vector 338 World.node[178].appl.middleware.ExampleService proof_size ETV
vector 339 World.node[178].appl.middleware.ExampleService proof_requested ETV
vector 340 World.node[175].appl.middleware.ExampleService proof_size ETV
vector 341 World.node[175].appl.middleware.ExampleService proof_requested ETV
vector 342 World.node[180].appl.middleware.ExampleService proof_size ETV
vector 343 World.node[180].appl.middleware.ExampleService proof_requested ETV
283	49562 66 17623417 19366227 607.060819438403 667.060819438403 2 33 39 72 2610
282	49628 65 17623417 19366227 607.060819438403 667.060819438403 2 1 18 19 325
vector 344 World.node[184].appl.middleware.ExampleService proof_size ETV
vector 345 World.node[184].appl.middleware.ExampleService proof_requested ETV
311	49844 33 19507299 19507299 671.022585434536 671.022585434536 1 33 33 33 1089
310	49877 32 19507299 19507299 671.022585434536 671.022585434536 1 7 7 7 49
vector 346 World.node[174].appl.middleware.ExampleService proof_size ETV
vector 347 World.node[174].appl.middleware.ExampleService proof_requested ETV
271	50060 99 17140852 21217500 596.047528930428 716.047528930428 3 26 35 95 3057
270	50159 97 17140852 21217500 596.047528930428 716.047528930428 3 3 15 25 283
275	50256 99 17445409 21428868 603.025317821954 723.025317821954 3 18 38 93 3137
274	50355 98 17445409 21428868 603.025317821954 723.025317821954 3 3 15 31 403
vector 348 World.node[176].appl.middleware.ExampleService proof_size ETV
vector 349 World.node[176].appl.middleware.ExampleService proof_requested ETV
vector 350 World.node[181].appl.middleware.ExampleService proof_size ETV
vector 351 World.node[181].appl.middleware.ExampleService proof_requested ETV
287	50755 96 18003572 22135351 619.08315650695 739.08315650695 3 18 38 89 2857
286	50851 94 18003572 22135351 619.08315650695 739.08315650695 3 5 12 23 205
vector 352 World.node[189].appl.middleware.ExampleService proof_size ETV
vector 353 World.node[189].appl.middleware.ExampleService proof_requested ETV
vector 354 World.node[188].appl.middleware.ExampleService proof_size ETV
vector 355 World.node[188].appl.middleware.ExampleService proof_requested ETV
vector 356 World.node[190].appl.middleware.ExampleService proof_size ETV
vector 357 World.node[190].appl.middleware.ExampleService proof_requested ETV
vector 358 World.node[187].appl.middleware.ExampleService proof_size ETV
vector 359 World.node[187].appl.middleware.ExampleService proof_requested ETV
217	51549 165 11965188 20832514 463.084800061956 703.084800061956 5 36 47 197 7839
216	51714 165 11965188 20832514 463.084800061956 703.084800061956 5 14 24 85 1511
vector 360 World.node[186].appl.middleware.ExampleService proof_size ETV
vector 361 World.node[186].appl.middleware.ExampleService proof_requested ETV
317	52030 66 19651556 21942797 675.046154643921 735.046154643921 2 36 37 73 2665
316	52096 65 19651556 21942797 675.046154643921 735.046154643921 2 0 27 27 729
vector 362 World.node[193].appl.middleware.ExampleService proof_size ETV
vector 363 World.node[193].appl.middleware.ExampleService proof_requested ETV
vector 364 World.node[183].appl.middleware.ExampleService proof_size ETV
vector 365 World.node[183].appl.middleware.ExampleService proof_requested ETV
313	52463 64 19539176 21797185 672.00115477629 732.00115477629 2 38 38 76 2888
312	52527 63 19539176 21797185 672.00115477629 732.00115477629 2 7 12 19 193
vector 366 World.node[185].appl.middleware.ExampleService proof_size ETV
vector 367 World.node[185].appl.middleware.ExampleService proof_requested ETV
vector 368 World.node[194].appl.middleware.ExampleService proof_size ETV
vector 369 World.node[194].appl.middleware.ExampleService proof_requested ETV
255	52892 132 15724353 21947647 555.088345468417 735.088345468417 4 29 38 139 4879
254	53024 131 15724353 21947647 555.088345468417 735.088345468417 4 5 21 55 887
325	53155 66 20400867 22674717 692.036836434528 752.036836434528 2 40 41 81 3281
324	53221 66 20400867 22674717 692.036836434528 752.036836434528 2 19 29 48 1202
vector 370 World.node[195].appl.middleware.ExampleService proof_size ETV
vector 371 World.node[195].appl.middleware.ExampleService proof_requested ETV
269	53438 132 17107879 23582516 595.087041321257 775.087041321257 4 35 39 145 5267
268	53570 132 17107879 23582516 595.087041321257 775.087041321257 4 10 18 62 1004
333	53702 66 20792105 23064962 702.037607459584 762.037607459584 2 31 39 70 2482
332	53768 66 20792105 23064962 702.037607459584 762.037607459584 2 11 20 31 521
357	53834 33 22633401 22633401 751.043676190847 751.043676190847 1 40 40 40 1600
356	53867 33 22633401 22633401 751.043676190847 751.043676190847 1 16 16 16 256
vector 372 World.node[191].appl.middleware.ExampleService proof_size ETV
vector 373 World.node[191].appl.middleware.ExampleService proof_requested ETV
331	54051 66 20789946 23063227 702.016435491666 762.016435491666 2 37 40 77 2969
330	54117 66 20789946 23063227 702.016435491666 762.016435491666 2 19 19 38 722
289	54183 99 18005462 22127534 619.104231100576 739.004231100576 3 15 40 78 2354
288	54282 96 18005462 22127534 619.104231100576 739.004231100576 3 0 9 13 97
vector 374 World.node[196].appl.middleware.ExampleService proof_size ETV
vector 375 World.node[196].appl.middleware.ExampleService proof_requested ETV
vector 376 World.node[197].appl.middleware.ExampleService proof_size ETV
vector 377 World.node[197].appl.middleware.ExampleService proof_requested ETV
vector 378 World.node[192].appl.middleware.ExampleService proof_size ETV
vector 379 World.node[192].appl.middleware.ExampleService proof_requested ETV
279	54831 132 17574532 24042401 606.023906711349 786.023906711349 4 37 42 157 6177
278	54963 132 17574532 24042401 606.023906711349 786.023906711349 4 15 27 86 1954
319	55095 99 19817195 24515253 679.068623744068 799.068623744068 3 35 41 115 4427
318	55194 98 19817195 24515253 679.068623744068 799.068623744068 3 6 19 41 653
369	55292 32 23534077 23534077 774.09690370115 774.09690370115 1 35 35 35 1225
368	55324 32 23534077 23534077 774.09690370115 774.09690370115 1 14 14 14 196
vector 380 World.node[207].appl.middleware.ExampleService proof_size ETV
vector 381 World.node[207].appl.middleware.ExampleService proof_requested ETV
vector 382 World.node[199].appl.middleware.ExampleService proof_size ETV
vector 383 World.node[199].appl.middleware.ExampleService proof_requested ETV
vector 384 World.node[198].appl.middleware.ExampleService proof_size ETV
vector 385 World.node[198].appl.middleware.ExampleService proof_requested ETV
309	55809 99 19393405 24124947 668.052207997837 788.052207997837 3 16 39 83 2561
308	55908 98 19393405 24124947 668.052207997837 788.052207997837 3 5 17 38 570
329	56006 66 20626884 22915297 698.009318031603 758.009318031603 2 40 41 81 3281
328	56072 66 20626884 22915297 698.009318031603 758.009318031603 2 10 20 30 500
vector 386 World.node[208].appl.middleware.ExampleService proof_size ETV
vector 387 World.node[208].appl.middleware.ExampleService proof_requested ETV
vector 388 World.node[206].appl.middleware.ExampleService proof_size ETV
vector 389 World.node[206].appl.middleware.ExampleService proof_requested ETV
257	56440 165 15786364 24428464 557.029712137301 797.029712137301 5 35 40 189 7165
256	56605 162 15786364 24428464 557.029712137301 797.029712137301 5 7 14 48 496
vector 390 World.node[204].appl.middleware.ExampleService proof_size ETV
vector 391 World.node[204].appl.middleware.ExampleService proof_requested ETV
vector 392 World.node[201].appl.middleware.ExampleService proof_size ETV
vector 393 World.node[201].appl.middleware.ExampleService proof_requested ETV
341	57069 66 21334678 23786052 720.025533080543 780.025533080543 2 28 43 71 2633
340	57135 65 21334678 23786052 720.025533080543 780.025533080543 2 7 15 22 274
vector 394 World.node[205].appl.middleware.ExampleService proof_size ETV
vector 395 World.node[205].appl.middleware.ExampleService proof_requested ETV
347	57351 62 21802589 24261302 732.0474661591 792.0474661591 2 36 40 76 2896
346	57413 61 21802589 24261302 732.0474661591 792.0474661591 2 8 13 21 233
vector 396 World.node[209].appl.middleware.ExampleService proof_size ETV
vector 397 World.node[209].appl.middleware.ExampleService proof_requested ETV
327	57625 99 20405755 24995048 692.089368594019 812.089368594019 3 32 41 113 4305
326	57724 98 20405755 24995048 692.089368594019 812.089368594019 3 4 22 39 669
vector 398 World.node[202].appl.middleware.ExampleService proof_size ETV
vector 399 World.node[202].appl.middleware.ExampleService proof_requested ETV
377	57973 33 24292574 24292574 793.029809735483 793.029809735483 1 39 39 39 1521
376	58006 32 24292574 24292574 793.029809735483 793.029809735483 1 4 4 4 16
vector 400 World.node[214].appl.middleware.ExampleService proof_size ETV
vector 401 World.node[214].appl.middleware.ExampleService proof_requested ETV
vector 402 World.node[211].appl.middleware.ExampleService proof_size ETV
vector 403 World.node[211].appl.middleware.ExampleService proof_requested ETV
vector 404 World.node[213].appl.middleware.ExampleService proof_size ETV
vector 405 World.node[213].appl.middleware.ExampleService proof_requested ETV
vector 406 World.node[203].appl.middleware.ExampleService proof_size ETV
vector 407 World.node[203].appl.middleware.ExampleService proof_requested ETV
vector 408 World.node[210].appl.middleware.ExampleService proof_size ETV
vector 409 World.node[210].appl.middleware.ExampleService proof_requested ETV
337	58793 99 21110338 25872981 712.080686129909 832.080686129909 3 27 38 93 2957
336	58892 96 21110338 25872981 712.080686129909 832.080686129909 3 0 0 0 0
385	58988 33 25079884 25079884 814.092398233595 814.092398233595 1 39 39 39 1521
384	59021 32 25079884 25079884 814.092398233595 814.092398233595 1 4 4 4 16
vector 410 World.node[217].appl.middleware.ExampleService proof_size ETV
vector 411 World.node[217].appl.middleware.ExampleService proof_requested ETV
351	59204 66 22444534 24802006 747.031109329173 807.031109329173 2 37 43 80 3218
350	59270 66 22444534 24802006 747.031109329173 807.031109329173 2 11 12 23 265
353	59336 66 22485777 24840793 748.038128867326 808.038128867326 2 31 35 66 2186
352	59402 66 22485777 24840793 748.038128867326 808.038128867326 2 11 14 25 317
321	59468 99 20065494 24719855 685.000295821601 805.000295821601 3 36 40 115 4417
320	59567 97 20065494 24719855 685.000295821601 805.000295821601 3 3 19 26 386
335	59664 99 21106139 25857676 712.004038696596 832.004038696596 3 32 43 108 3962
334	59763 99 21106139 25857676 712.004038696596 832.004038696596 3 11 17 40 554
391	59862 32 25587652 25587652 825.01965625002 825.01965625002 1 39 39 39 1521
390	59894 32 25587652 25587652 825.01965625002 825.01965625002 1 20 20 20 400
291	59926 165 18023930 27054443 620.047138680099 860.047138680099 5 34 43 192 7432
290	60091 164 18023930 27054443 620.047138680099 860.047138680099 5 9 22 70 1086
vector 412 World.node[223].appl.middleware.ExampleService proof_size ETV
vector 413 World.node[223].appl.middleware.ExampleService proof_requested ETV
vector 414 World.node[222].appl.middleware.ExampleService proof_size ETV
vector 415 World.node[222].appl.middleware.ExampleService proof_requested ETV
vector 416 World.node[212].appl.middleware.ExampleService proof_size ETV
vector 417 World.node[212].appl.middleware.ExampleService proof_requested ETV
vector 418 World.node[218].appl.middleware.ExampleService proof_size ETV
vector 419 World.node[218].appl.middleware.ExampleService proof_requested ETV
299	60859 165 18342100 27647957 633.066953277355 873.066953277355 5 35 43 199 7973
298	61024 164 18342100 27647957 633.066953277355 873.066953277355 5 9 18 73 1113
323	61188 132 20159678 27383699 687.079895281675 867.079895281675 4 38 45 166 6918
322	61320 131 20159678 27383699 687.079895281675 867.079895281675 4 9 23 67 1235
383	61451 66 24953060 27553442 811.061304394621 871.061304394621 2 41 43 84 3530
382	61517 65 24953060 27553442 811.061304394621 871.061304394621 2 6 11 17 157
vector 420 World.node[229].appl.middleware.ExampleService proof_size ETV
vector 421 World.node[229].appl.middleware.ExampleService proof_requested ETV
415	61733 33 27652228 27652228 873.095851381752 873.095851381752 1 42 42 42 1764
414	61766 32 27652228 27652228 873.095851381752 873.095851381752 1 0 0 0 0
343	61798 99 21390920 26284325 722.009602098609 842.009602098609 3 20 41 100 3602
342	61897 98 21390920 26284325 722.009602098609 842.009602098609 3 7 22 39 633
vector 422 World.node[227].appl.middleware.ExampleService proof_size ETV
vector 423 World.node[227].appl.middleware.ExampleService proof_requested ETV
vector 424 World.node[215].appl.middleware.ExampleService proof_size ETV
vector 425 World.node[215].appl.middleware.ExampleService proof_requested ETV
vector 426 World.node[224].appl.middleware.ExampleService proof_size ETV
vector 427 World.node[224].appl.middleware.ExampleService proof_requested ETV
367	62448 99 23282223 28380635 768.058182832203 888.058182832203 3 39 43 124 5134
366	62547 99 23282223 28380635 768.058182832203 888.058182832203 3 15 23 58 1154
371	62646 99 23659710 28735007 777.062032693578 897.062032693578 3 38 43 122 4974
370	62745 99 23659710 28735007 777.062032693578 897.062032693578 3 11 18 44 670
379	62844 66 24611269 27142832 802.021886170073 862.021886170073 2 36 38 74 2740
378	62910 65 24611269 27142832 802.021886170073 862.021886170073 2 5 14 19 221
307	62975 165 19170118 28864380 661.063461416704 901.063461416704 5 16 38 130 3646
306	63140 162 19170118 28864380 661.063461416704 901.063461416704 5 4 17 46 524
vector 428 World.node[232].appl.middleware.ExampleService proof_size ETV
vector 429 World.node[232].appl.middleware.ExampleService proof_requested ETV
vector 430 World.node[226].appl.middleware.ExampleService proof_size ETV
vector 431 World.node[226].appl.middleware.ExampleService proof_requested ETV
vector 432 World.node[220].appl.middleware.ExampleService proof_size ETV
vector 433 World.node[220].appl.middleware.ExampleService proof_requested ETV
303	63755 165 18705565 28284633 646.000975737721 886.000975737721 5 24 41 177 6463
302	63920 162 18705565 28284633 646.000975737721 886.000975737721 5 4 15 45 499
vector 434 World.node[236].appl.middleware.ExampleService proof_size ETV
vector 435 World.node[236].appl.middleware.ExampleService proof_requested ETV
355	64233 99 22531162 27468665 749.087219930277 869.087219930277 3 40 42 124 5128
354	64332 99 22531162 27468665 749.087219930277 869.087219930277 3 13 21 53 971
373	64431 99 24086252 29103006 787.054373264336 907.054373264336 3 24 42 104 3784
372	64530 99 24086252 29103006 787.054373264336 907.054373264336 3 10 19 42 630
417	64629 33 27690240 27690240 874.045352052734 874.045352052734 1 38 38 38 1444
416	64662 33 27690240 27690240 874.045352052734 874.045352052734 1 28 28 28 784
vector 436 World.node[221].appl.middleware.ExampleService proof_size ETV
vector 437 World.node[221].appl.middleware.ExampleService proof_requested ETV
vector 438 World.node[237].appl.middleware.ExampleService proof_size ETV
vector 439 World.node[237].appl.middleware.ExampleService proof_requested ETV
305	64997 165 18734301 28334464 647.063155819545 887.063155819545 5 37 44 199 7959
304	65162 165 18734301 28334464 647.063155819545 887.063155819545 5 12 17 74 1110
vector 440 World.node[234].appl.middleware.ExampleService proof_size ETV
vector 441 World.node[234].appl.middleware.ExampleService proof_requested ETV
vector 442 World.node[230].appl.middleware.ExampleService proof_size ETV
vector 443 World.node[230].appl.middleware.ExampleService proof_requested ETV
vector 444 World.node[228].appl.middleware.ExampleService proof_size ETV
vector 445 World.node[228].appl.middleware.ExampleService proof_requested ETV
359	65780 132 22758445 30035690 754.073738071462 934.073738071462 4 35 41 154 5956
358	65912 131 22758445 30035690 754.073738071462 934.073738071462 4 7 19 55 831
395	66043 66 25759485 28425349 829.069295036863 889.069295036863 2 34 40 74 2756
394	66109 66 25759485 28425349 829.069295036863 889.069295036863 2 15 18 33 549
401	66175 66 26293765 28894684 842.068068349478 902.068068349478 2 36 39 75 2817
400	66241 65 26293765 28894684 842.068068349478 902.068068349478 2 2 13 15 173
vector 446 World.node[240].appl.middleware.ExampleService proof_size ETV
vector 447 World.node[240].appl.middleware.ExampleService proof_requested ETV
365	66457 132 23008799 30261165 760.079586539976 940.079586539976 4 36 44 161 6513
364	66589 129 23008799 30261165 760.079586539976 940.079586539976 4 0 28 34 804
vector 448 World.node[231].appl.middleware.ExampleService proof_size ETV
vector 449 World.node[231].appl.middleware.ExampleService proof_requested ETV
345	66869 132 21563245 29063609 726.013988597924 906.013988597924 4 19 41 136 4938
344	67001 132 21563245 29063609 726.013988597924 906.013988597924 4 11 28 87 2059
285	67133 186 17828176 29338059 613.0022787411 913.0022787411 6 26 42 206 7258
284	67319 180 17828176 29338059 613.0022787411 913.0022787411 6 3 9 35 229
399	67499 66 26083557 28737021 837.082017836301 897.082017836301 2 38 40 78 3044
398	67565 65 26083557 28737021 837.082017836301 897.082017836301 2 1 12 13 145
vector 450 World.node[235].appl.middleware.ExampleService proof_size ETV
vector 451 World.node[235].appl.middleware.ExampleService proof_requested ETV
vector 452 World.node[239].appl.middleware.ExampleService proof_size ETV
vector 453 World.node[239].appl.middleware.ExampleService proof_requested ETV
431	67932 33 29140587 29140587 908.003603776707 908.003603776707 1 36 36 36 1296
430	67965 33 29140587 29140587 908.003603776707 908.003603776707 1 15 15 15 225
423	67998 64 28667541 30819542 895.07841496896 955.07841496896 2 23 42 65 2293
422	68062 63 28667541 30819542 895.07841496896 955.07841496896 2 9 12 21 225
vector 454 World.node[244].appl.middleware.ExampleService proof_size ETV
vector 455 World.node[244].appl.middleware.ExampleService proof_requested ETV
361	68276 132 22951859 30224345 759.005841020262 939.005841020262 4 38 43 161 6501
360	68408 132 22951859 30224345 759.005841020262 939.005841020262 4 10 22 52 784
vector 456 World.node[241].appl.middleware.ExampleService proof_size ETV
vector 457 World.node[241].appl.middleware.ExampleService proof_requested ETV
403	68691 99 26343133 31109174 843.019751145435 963.019751145435 3 37 43 120 4818
402	68790 98 26343133 31109174 843.019751145435 963.019751145435 3 1 20 38 690
vector 458 World.node[248].appl.middleware.ExampleService proof_size ETV
vector 459 World.node[248].appl.middleware.ExampleService proof_requested ETV
vector 460 World.node[242].appl.middleware.ExampleService proof_size ETV
vector 461 World.node[242].appl.middleware.ExampleService proof_requested ETV
vector 462 World.node[243].appl.middleware.ExampleService proof_size ETV
vector 463 World.node[243].appl.middleware.ExampleService proof_requested ETV
407	69341 99 26446855 31187055 845.083798135654 965.083798135654 3 39 41 121 4883
406	69440 96 26446855 31187055 845.083798135654 965.083798135654 3 0 9 9 81
vector 464 World.node[238].appl.middleware.ExampleService proof_size ETV
vector 465 World.node[238].appl.middleware.ExampleService proof_requested ETV
397	69687 96 26005705 30814478 835.01188515909 955.01188515909 3 38 43 120 4814
396	69783 94 26005705 30814478 835.01188515909 955.01188515909 3 8 12 29 289
vector 466 World.node[245].appl.middleware.ExampleService proof_size ETV
vector 467 World.node[245].appl.middleware.ExampleService proof_requested ETV
465	70028 33 31552784 31552784 975.098059544503 975.098059544503 1 38 38 38 1444
464	70061 32 31552784 31552784 975.098059544503 975.098059544503 1 0 0 0 0
vector 468 World.node[250].appl.middleware.ExampleService proof_size ETV
vector 469 World.node[250].appl.middleware.ExampleService proof_requested ETV
419	70244 66 28011391 30261457 880.081035467656 940.081035467656 2 28 41 69 2465
418	70310 64 28011391 30261457 880.081035467656 940.081035467656 2 0 0 0 0
457	70374 33 31409894 31409894 971.075325925206 971.075325925206 1 30 30 30 900
456	70407 33 31409894 31409894 971.075325925206 971.075325925206 1 10 10 10 100
vector 470 World.node[246].appl.middleware.ExampleService proof_size ETV
vector 471 World.node[246].appl.middleware.ExampleService proof_requested ETV
375	70591 132 24202655 31370161 790.042296765139 970.042296765139 4 37 41 157 6171
374	70723 132 24202655 31370161 790.042296765139 970.042296765139 4 12 20 61 969
339	70855 165 21215575 30845601 716.014430886623 956.014430886623 5 29 44 188 7234
338	71020 163 21215575 30845601 716.014430886623 956.014430886623 5 7 13 51 557
393	71183 99 25639932 30458450 826.060740037356 946.060740037356 3 40 45 125 5225
392	71282 99 25639932 30458450 826.060740037356 946.060740037356 3 11 16 40 546
387	71381 99 25224145 30145486 817.009280729084 937.009280729084 3 33 43 118 4702
386	71480 98 25224145 30145486 817.009280729084 937.009280729084 3 9 25 53 1067
vector 472 World.node[249].appl.middleware.ExampleService proof_size ETV
vector 473 World.node[249].appl.middleware.ExampleService proof_requested ETV
411	71729 99 26839948 31551435 855.076615586784 975.076615586784 3 38 40 116 4488
410	71828 99 26839948 31551435 855.076615586784 975.076615586784 3 11 16 41 573
449	71927 33 30727608 30727608 953.040334576345 953.040334576345 1 35 35 35 1225
448	71960 33 30727608 30727608 953.040334576345 953.040334576345 1 12 12 12 144
433	71993 66 29146837 31302675 908.077475113864 968.077475113864 2 36 40 76 2896
432	72059 65 29146837 31302675 908.077475113864 968.077475113864 2 0 12 12 144
vector 474 World.node[257].appl.middleware.ExampleService proof_size ETV
vector 475 World.node[257].appl.middleware.ExampleService proof_requested ETV
vector 476 World.node[255].appl.middleware.ExampleService proof_size ETV
vector 477 World.node[255].appl.middleware.ExampleService proof_requested ETV
vector 478 World.node[258].appl.middleware.ExampleService proof_size ETV
vector 479 World.node[258].appl.middleware.ExampleService proof_requested ETV
443	72577 66 30109502 32118766 936.020274263248 996.020274263248 2 34 35 69 2381
442	72643 66 30109502 32118766 936.020274263248 996.020274263248 2 10 13 23 269
vector 480 World.node[256].appl.middleware.ExampleService proof_size ETV
vector 481 World.node[256].appl.middleware.ExampleService proof_requested ETV
vector 482 World.node[251].appl.middleware.ExampleService proof_size ETV
vector 483 World.node[251].appl.middleware.ExampleService proof_requested ETV
vector 484 World.node[253].appl.middleware.ExampleService proof_size ETV
vector 485 World.node[253].appl.middleware.ExampleService proof_requested ETV
425	73162 100 28701291 32703263 896.078878310183 1016.078878310183 3 23 36 95 3121
424	73262 97 28701291 32703263 896.078878310183 1016.078878310183 3 1 9 13 91
vector 486 World.node[254].appl.middleware.ExampleService proof_size ETV
vector 487 World.node[254].appl.middleware.ExampleService proof_requested ETV
vector 488 World.node[247].appl.middleware.ExampleService proof_size ETV
vector 489 World.node[247].appl.middleware.ExampleService proof_requested ETV
389	73661 132 25278071 32180294 818.053173642675 998.053173642675 4 32 42 154 5990
388	73793 132 25278071 32180294 818.053173642675 998.053173642675 4 12 25 72 1422
435	73925 66 29496127 31612185 917.085808246583 977.085808246583 2 34 36 70 2452
434	73991 65 29496127 31612185 917.085808246583 977.085808246583 2 4 20 24 416
405	74056 133 26441565 32968641 845.030340869818 1025.030340869818 4 15 43 136 5124
404	74189 132 26441565 32968641 845.030340869818 1025.030340869818 4 8 15 47 579
vector 490 World.node[262].appl.middleware.ExampleService proof_size ETV
vector 491 World.node[262].appl.middleware.ExampleService proof_requested ETV
vector 492 World.node[259].appl.middleware.ExampleService proof_size ETV
vector 493 World.node[259].appl.middleware.ExampleService proof_requested ETV
363	74623 166 23005040 32234129 760.026404914516 1000.026404914516 5 29 44 182 6778
362	74789 166 23005040 32234129 760.026404914516 1000.026404914516 5 11 17 69 971
vector 494 World.node[265].appl.middleware.ExampleService proof_size ETV
vector 495 World.node[265].appl.middleware.ExampleService proof_requested ETV
vector 496 World.node[261].appl.middleware.ExampleService proof_size ETV
vector 497 World.node[261].appl.middleware.ExampleService proof_requested ETV
381	75257 132 24949030 31960199 811.011497502122 991.011497502122 4 33 44 152 5850
380	75389 130 24949030 31960199 811.011497502122 991.011497502122 4 6 13 38 386
vector 498 World.node[252].appl.middleware.ExampleService proof_size ETV
vector 499 World.node[252].appl.middleware.ExampleService proof_requested ETV
vector 500 World.node[267].appl.middleware.ExampleService proof_size ETV
vector 501 World.node[267].appl.middleware.ExampleService proof_requested ETV
vector 502 World.node[268].appl.middleware.ExampleService proof_size ETV
vector 503 World.node[268].appl.middleware.ExampleService proof_requested ETV
409	75972 133 26483368 32994516 846.042821019422 1026.042821019422 4 21 41 132 4580
408	76105 132 26483368 32994516 846.042821019422 1026.042821019422 4 8 16 53 745
459	76237 66 31481642 33171547 973.001840289892 1033.001840289892 2 9 33 42 1170
458	76303 66 31481642 33171547 973.001840289892 1033.001840289892 2 6 10 16 136
vector 504 World.node[263].appl.middleware.ExampleService proof_size ETV
vector 505 World.node[263].appl.middleware.ExampleService proof_requested ETV
349	76520 199 22203525 33404318 741.060283960635 1041.060283960635 6 20 44 209 7647
348	76719 197 22203525 33404318 741.060283960635 1041.060283960635 6 3 20 73 1067
445	76916 100 30146083 33975021 937.015122086508 1057.015122086508 3 27 31 88 2590
444	77016 99 30146083 33975021 937.015122086508 1057.015122086508 3 4 15 32 410
499	77115 34 33643852 33643852 1047.085716592078 1047.085716592078 1 33 33 33 1089
498	77149 34 33643852 33643852 1047.085716592078 1047.085716592078 1 17 17 17 289
439	77183 100 29594465 33369839 920.025316153606 1040.025316153606 3 37 39 114 4334
438	77283 97 29594465 33369839 920.025316153606 1040.025316153606 3 1 9 13 91
469	77380 67 31733150 33401438 981.023599877418 1041.023599877418 2 34 37 71 2525
468	77447 67 31733150 33401438 981.023599877418 1041.023599877418 2 16 17 33 545
vector 506 World.node[264].appl.middleware.ExampleService proof_size ETV
vector 507 World.node[264].appl.middleware.ExampleService proof_requested ETV
vector 508 World.node[269].appl.middleware.ExampleService proof_size ETV
vector 509 World.node[269].appl.middleware.ExampleService proof_requested ETV
461	77816 67 31510659 33192347 974.021092531527 1034.021092531527 2 19 35 54 1586
460	77883 66 31510659 33192347 974.021092531527 1034.021092531527 2 7 12 19 193
vector 510 World.node[260].appl.middleware.ExampleService proof_size ETV
vector 511 World.node[260].appl.middleware.ExampleService proof_requested ETV
505	78100 34 34035875 34035875 1059.057457322814 1059.057457322814 1 36 36 36 1296
504	78134 34 34035875 34035875 1059.057457322814 1059.057457322814 1 12 12 12 144
vector 512 World.node[270].appl.middleware.ExampleService proof_size ETV
vector 513 World.node[270].appl.middleware.ExampleService proof_requested ETV
vector 514 World.node[271].appl.middleware.ExampleService proof_size ETV
vector 515 World.node[271].appl.middleware.ExampleService proof_requested ETV
vector 516 World.node[266].appl.middleware.ExampleService proof_size ETV
vector 517 World.node[266].appl.middleware.ExampleService proof_requested ETV
453	78621 101 31058163 34624792 962.000688959728 1082.000688959728 3 28 34 91 2781
452	78722 99 31058163 34624792 962.000688959728 1082.000688959728 3 4 11 22 186
479	78821 68 32738914 34500307 1017.030111322505 1077.030111322505 2 20 32 52 1424
478	78889 67 32738914 34500307 1017.030111322505 1077.030111322505 2 9 10 19 181
447	78956 101 30685709 34376900 952.044855683157 1072.044855683157 3 25 35 94 3006
446	79057 99 30685709 34376900 952.044855683157 1072.044855683157 3 6 13 28 286
vector 518 World.node[272].appl.middleware.ExampleService proof_size ETV
vector 519 World.node[272].appl.middleware.ExampleService proof_requested ETV
421	79307 130 28452146 34325157 890.03903295889 1070.03903295889 4 17 34 113 3375
420	79437 128 28452146 34325157 890.03903295889 1070.03903295889 4 4 12 34 340
477	79565 68 32637419 34421166 1014.066589554539 1074.066589554539 2 31 33 64 2050
476	79633 68 32637419 34421166 1014.066589554539 1074.066589554539 2 12 13 25 313
441	79701 100 29719131 33524998 924.086066224426 1044.086066224426 3 34 38 108 3896
440	79801 100 29719131 33524998 924.086066224426 1044.086066224426 3 13 19 46 726
473	79901 67 32091874 33905676 995.082358990144 1055.082358990144 2 26 34 60 1832
472	79968 65 32091874 33905676 995.082358990144 1055.082358990144 2 4 6 10 52
vector 520 World.node[276].appl.middleware.ExampleService proof_size ETV
vector 521 World.node[276].appl.middleware.ExampleService proof_requested ETV
463	80184 101 31512010 34995032 974.034451098833 1094.034451098833 3 27 34 91 2785
462	80285 100 31512010 34995032 974.034451098833 1094.034451098833 3 0 17 33 545
vector 522 World.node[279].appl.middleware.ExampleService proof_size ETV
vector 523 World.node[279].appl.middleware.ExampleService proof_requested ETV
vector 524 World.node[275].appl.middleware.ExampleService proof_size ETV
vector 525 World.node[275].appl.middleware.ExampleService proof_requested ETV
451	80687 101 30891923 34500809 957.047337206476 1077.047337206476 3 29 33 95 3019
450	80788 101 30891923 34500809 957.047337206476 1077.047337206476 3 16 17 49 801
vector 526 World.node[283].appl.middleware.ExampleService proof_size ETV
vector 527 World.node[283].appl.middleware.ExampleService proof_requested ETV
vector 528 World.node[273].appl.middleware.ExampleService proof_size ETV
vector 529 World.node[273].appl.middleware.ExampleService proof_requested ETV
467	81191 101 31605733 35080424 977.021676679514 1097.021676679514 3 20 32 77 2049
466	81292 99 31605733 35080424 977.021676679514 1097.021676679514 3 6 17 32 406
509	81391 68 34328401 35961645 1070.083591204463 1130.083591204463 2 26 33 59 1765
508	81459 66 34328401 35961645 1070.083591204463 1130.083591204463 2 0 0 0 0
vector 530 World.node[277].appl.middleware.ExampleService proof_size ETV
vector 531 World.node[277].appl.middleware.ExampleService proof_requested ETV
vector 532 World.node[280].appl.middleware.ExampleService proof_size ETV
vector 533 World.node[280].appl.middleware.ExampleService proof_requested ETV
vector 534 World.node[284].appl.middleware.ExampleService proof_size ETV
vector 535 World.node[284].appl.middleware.ExampleService proof_requested ETV
vector 536 World.node[274].appl.middleware.ExampleService proof_size ETV
vector 537 World.node[274].appl.middleware.ExampleService proof_requested ETV
vector 538 World.node[285].appl.middleware.ExampleService proof_size ETV
vector 539 World.node[285].appl.middleware.ExampleService proof_requested ETV
517	82280 68 34580677 36306828 1080.058520261105 1140.058520261105 2 32 33 65 2113
516	82348 66 34580677 36306828 1080.058520261105 1140.058520261105 2 5 6 11 61
vector 540 World.node[282].appl.middleware.ExampleService proof_size ETV
vector 541 World.node[282].appl.middleware.ExampleService proof_requested ETV
vector 542 World.node[288].appl.middleware.ExampleService proof_size ETV
vector 543 World.node[288].appl.middleware.ExampleService proof_requested ETV
455	82716 135 31181329 36478130 965.014785620919 1145.014785620919 4 35 39 147 5411
454	82851 131 31181329 36478130 965.014785620919 1145.014785620919 4 6 8 28 198
vector 544 World.node[287].appl.middleware.ExampleService proof_size ETV
vector 545 World.node[287].appl.middleware.ExampleService proof_requested ETV
[...]
1703	296294 72 138091181 142352257 3393.060336749279 3453.060336749279 2 45 49 94 4426
1702	296366 72 138091181 142352257 3393.060336749279 3453.060336749279 2 17 26 43 965
1669	296438 108 133412613 142169373 3330.060803251923 3450.060803251923 3 35 57 149 7723
1668	296546 107 133412613 142169373 3330.060803251923 3450.060803251923 3 1 12 23 245
1733	296653 36 141997517 141997517 3447.040292485338 3447.040292485338 1 49 49 49 2401
1732	296689 35 141997517 141997517 3447.040292485338 3447.040292485338 1 1 1 1 1
vector 1752 World.node[909].appl.middleware.ExampleService proof_size ETV
vector 1753 World.node[909].appl.middleware.ExampleService proof_requested ETV
vector 1754 World.node[906].appl.middleware.ExampleService proof_size ETV
vector 1755 World.node[906].appl.middleware.ExampleService proof_requested ETV
1707	297030 72 138681671 142784249 3400.002526233229 3460.002526233229 2 37 56 93 4505
1706	297102 72 138681671 142784249 3400.002526233229 3460.002526233229 2 11 12 23 265
1743	297174 36 143066314 143066314 3464.003761725756 3464.003761725756 1 42 42 42 1764
1742	297210 35 143066314 143066314 3464.003761725756 3464.003761725756 1 3 3 3 9
1659	297245 108 132816972 141569342 3320.030820671911 3440.030820671911 3 47 53 151 7619
1658	297353 107 132816972 141569342 3320.030820671911 3440.030820671911 3 3 17 33 467
1711	297460 72 139085000 143158164 3405.007242145226 3465.007242145226 2 52 53 105 5513
1710	297532 72 139085000 143158164 3405.007242145226 3465.007242145226 2 10 11 21 221
1715	297604 72 139749187 143869592 3415.033286402212 3475.033286402212 2 47 54 101 5125
1714	297676 72 139749187 143869592 3415.033286402212 3475.033286402212 2 13 22 35 653
1657	297748 144 132770607 145396465 3319.070073444257 3499.070073444257 4 44 58 200 10134
1656	297892 144 132770607 145396465 3319.070073444257 3499.070073444257 4 15 23 79 1607
vector 1756 World.node[905].appl.middleware.ExampleService proof_size ETV
vector 1757 World.node[905].appl.middleware.ExampleService proof_requested ETV
1701	298189 72 137758795 142118869 3389.061737460527 3449.061737460527 2 51 60 111 6201
1700	298261 72 137758795 142118869 3389.061737460527 3449.061737460527 2 11 34 45 1277
1579	298333 216 124920035 143241502 3166.080102026951 3466.080102026951 6 42 59 305 15727
1578	298549 215 124920035 143241502 3166.080102026951 3466.080102026951 6 5 21 95 1687
vector 1758 World.node[911].appl.middleware.ExampleService proof_size ETV
vector 1759 World.node[911].appl.middleware.ExampleService proof_requested ETV
vector 1760 World.node[914].appl.middleware.ExampleService proof_size ETV
vector 1761 World.node[914].appl.middleware.ExampleService proof_requested ETV
1665	299070 144 133225425 145746481 3327.010871958826 3507.010871958826 4 47 59 207 10791
1664	299214 144 133225425 145746481 3327.010871958826 3507.010871958826 4 14 19 64 1038
1649	299358 144 131923278 144643443 3306.040775972675 3486.040775972675 4 50 57 214 11478
1648	299502 144 131923278 144643443 3306.040775972675 3486.040775972675 4 16 27 84 1830
vector 1762 World.node[908].appl.middleware.ExampleService proof_size ETV
vector 1763 World.node[908].appl.middleware.ExampleService proof_requested ETV
1629	299799 180 129844964 146020274 3273.081060716021 3513.081060716021 5 48 60 260 13634
1628	299979 180 129844964 146020274 3273.081060716021 3513.081060716021 5 10 25 83 1535
1747	300159 36 144024870 144024870 3477.079562394065 3477.079562394065 1 56 56 56 3136
1746	300195 36 144024870 144024870 3477.079562394065 3477.079562394065 1 22 22 22 484
vector 1764 World.node[917].appl.middleware.ExampleService proof_size ETV
vector 1765 World.node[917].appl.middleware.ExampleService proof_requested ETV
vector 1766 World.node[912].appl.middleware.ExampleService proof_size ETV
vector 1767 World.node[912].appl.middleware.ExampleService proof_requested ETV
1483	300537 360 115720078 145883529 2970.016952798353 3510.016952798353 10 35 57 450 20750
1482	300897 359 115720078 145883529 2970.016952798353 3510.016952798353 10 6 17 129 1771
vector 1768 World.node[913].appl.middleware.ExampleService proof_size ETV
vector 1769 World.node[913].appl.middleware.ExampleService proof_requested ETV
1593	301409 216 125672679 144586257 3185.076639451808 3485.076639451808 6 41 60 294 14670
1592	301625 214 125672679 144586257 3185.076639451808 3485.076639451808 6 0 26 80 1482
1697	301839 108 137004533 145443539 3380.026338002691 3500.026338002691 3 43 55 143 6899
1696	301947 108 137004533 145443539 3380.026338002691 3500.026338002691 3 12 31 62 1466
vector 1770 World.node[920].appl.middleware.ExampleService proof_size ETV
vector 1771 World.node[920].appl.middleware.ExampleService proof_requested ETV
1713	302208 108 139273452 146751733 3407.084218349471 3527.084218349471 3 43 54 142 6790
1712	302316 107 139273452 146751733 3407.084218349471 3527.084218349471 3 0 21 39 765
1597	302423 216 126127218 145342115 3198.004822016717 3498.004822016717 6 19 54 256 11666
1596	302639 213 126127218 145342115 3198.004822016717 3498.004822016717 6 6 14 59 633
vector 1772 World.node[918].appl.middleware.ExampleService proof_size ETV
vector 1773 World.node[918].appl.middleware.ExampleService proof_requested ETV
1693	303005 108 136751639 145283730 3377.039107970614 3497.039107970614 3 24 49 121 5281
1692	303113 107 136751639 145283730 3377.039107970614 3497.039107970614 3 7 16 34 426
vector 1774 World.node[927].appl.middleware.ExampleService proof_size ETV
vector 1775 World.node[927].appl.middleware.ExampleService proof_requested ETV
vector 1776 World.node[925].appl.middleware.ExampleService proof_size ETV
vector 1777 World.node[925].appl.middleware.ExampleService proof_requested ETV
vector 1778 World.node[922].appl.middleware.ExampleService proof_size ETV
vector 1779 World.node[922].appl.middleware.ExampleService proof_requested ETV
vector 1780 World.node[916].appl.middleware.ExampleService proof_size ETV
vector 1781 World.node[916].appl.middleware.ExampleService proof_requested ETV
vector 1782 World.node[915].appl.middleware.ExampleService proof_size ETV
vector 1783 World.node[915].appl.middleware.ExampleService proof_requested ETV
vector 1784 World.node[919].appl.middleware.ExampleService proof_size ETV
vector 1785 World.node[919].appl.middleware.ExampleService proof_requested ETV
vector 1786 World.node[930].appl.middleware.ExampleService proof_size ETV
vector 1787 World.node[930].appl.middleware.ExampleService proof_requested ETV
vector 1788 World.node[931].appl.middleware.ExampleService proof_size ETV
vector 1789 World.node[931].appl.middleware.ExampleService proof_requested ETV
1749	304444 72 144131461 147263466 3478.096965340036 3538.096965340036 2 46 53 99 4925
1748	304516 70 144131461 147263466 3478.096965340036 3538.096965340036 2 4 8 12 80
vector 1790 World.node[932].appl.middleware.ExampleService proof_size ETV
vector 1791 World.node[932].appl.middleware.ExampleService proof_requested ETV
1763	304739 36 146166697 146166697 3516.069187904242 3516.069187904242 1 45 45 45 2025
1762	304775 36 146166697 146166697 3516.069187904242 3516.069187904242 1 15 15 15 225
1685	304811 144 135175311 147025730 3353.086593824695 3533.086593824695 4 32 56 180 8554
1684	304955 142 135175311 147025730 3353.086593824695 3533.086593824695 4 3 15 31 343
1691	305097 144 136492965 148017883 3374.030410676822 3554.030410676822 4 41 55 189 9043
1690	305241 142 136492965 148017883 3374.030410676822 3554.030410676822 4 1 14 26 298
1721	305383 105 140114539 147391769 3421.02962446569 3541.02962446569 3 33 53 137 6499
1720	305488 104 140114539 147391769 3421.02962446569 3541.02962446569 3 9 24 45 801
1727	305592 108 141631624 148390188 3441.050267840317 3561.050267840317 3 43 54 147 7265
1726	305700 107 141631624 148390188 3441.050267840317 3561.050267840317 3 0 20 33 569
1745	305807 72 143795212 147064350 3474.069470655941 3534.069470655941 2 34 50 84 3656
1744	305879 71 143795212 147064350 3474.069470655941 3534.069470655941 2 8 23 31 593
1637	305950 180 130302990 146376635 3280.024268906657 3520.024268906657 5 31 59 246 12592
1636	306130 177 130302990 146376635 3280.024268906657 3520.024268906657 5 0 28 63 1301
vector 1792 World.node[935].appl.middleware.ExampleService proof_size ETV
vector 1793 World.node[935].appl.middleware.ExampleService proof_requested ETV
1673	306460 144 134178398 146386691 3340.060357513512 3520.060357513512 4 45 60 215 11707
1672	306604 141 134178398 146386691 3340.060357513512 3520.060357513512 4 0 16 18 260
1767	306745 36 146546858 146546858 3523.055187020521 3523.055187020521 1 45 45 45 2025
1766	306781 36 146546858 146546858 3523.055187020521 3523.055187020521 1 13 13 13 169
1719	306817 105 140059700 147340710 3420.01702165578 3540.01702165578 3 41 53 143 6891
1718	306922 104 140059700 147340710 3420.01702165578 3540.01702165578 3 2 21 41 769
vector 1794 World.node[921].appl.middleware.ExampleService proof_size ETV
vector 1795 World.node[921].appl.middleware.ExampleService proof_requested ETV
vector 1796 World.node[923].appl.middleware.ExampleService proof_size ETV
vector 1797 World.node[923].appl.middleware.ExampleService proof_requested ETV
vector 1798 World.node[926].appl.middleware.ExampleService proof_size ETV
vector 1799 World.node[926].appl.middleware.ExampleService proof_requested ETV
vector 1800 World.node[936].appl.middleware.ExampleService proof_size ETV
vector 1801 World.node[936].appl.middleware.ExampleService proof_requested ETV
vector 1802 World.node[924].appl.middleware.ExampleService proof_size ETV
vector 1803 World.node[924].appl.middleware.ExampleService proof_requested ETV
vector 1804 World.node[928].appl.middleware.ExampleService proof_size ETV
vector 1805 World.node[928].appl.middleware.ExampleService proof_requested ETV
1601	307944 252 126690735 148921153 3211.030597046087 3571.030597046087 7 43 59 338 16538
1600	308196 251 126690735 148921153 3211.030597046087 3571.030597046087 7 9 21 91 1287
1765	308447 72 146503359 149441284 3522.092832899978 3582.092832899978 2 13 40 53 1769
1764	308519 70 146503359 149441284 3522.092832899978 3582.092832899978 2 5 9 14 106
1757	308589 72 145526569 148440717 3502.034549952112 3562.034549952112 2 41 47 88 3890
1756	308661 72 145526569 148440717 3502.034549952112 3562.034549952112 2 10 19 29 461
1589	308733 252 125471976 147341787 3180.034170017205 3540.034170017205 7 40 51 325 15183
1588	308985 250 125471976 147341787 3180.034170017205 3540.034170017205 7 1 18 78 1164
vector 1806 World.node[941].appl.middleware.ExampleService proof_size ETV
vector 1807 World.node[941].appl.middleware.ExampleService proof_requested ETV
1737	309388 108 142857811 149375744 3461.010847576498 3581.010847576498 3 38 40 117 4565
1736	309496 105 142857811 149375744 3461.010847576498 3581.010847576498 3 5 7 19 123
vector 1808 World.node[943].appl.middleware.ExampleService proof_size ETV
vector 1809 World.node[943].appl.middleware.ExampleService proof_requested ETV
vector 1810 World.node[938].appl.middleware.ExampleService proof_size ETV
vector 1811 World.node[938].appl.middleware.ExampleService proof_requested ETV
1731	309907 108 141935515 148655556 3446.081058909092 3566.081058909092 3 46 54 148 7336
1730	310015 107 141935515 148655556 3446.081058909092 3566.081058909092 3 1 21 39 731
1769	310122 72 146597628 149506386 3524.093800464529 3584.093800464529 2 37 44 81 3305
1768	310194 71 146597628 149506386 3524.093800464529 3584.093800464529 2 0 19 19 361
vector 1812 World.node[933].appl.middleware.ExampleService proof_size ETV
vector 1813 World.node[933].appl.middleware.ExampleService proof_requested ETV
vector 1814 World.node[934].appl.middleware.ExampleService proof_size ETV
vector 1815 World.node[934].appl.middleware.ExampleService proof_requested ETV
vector 1816 World.node[940].appl.middleware.ExampleService proof_size ETV
vector 1817 World.node[940].appl.middleware.ExampleService proof_requested ETV
1729	310724 144 141690547 151053039 3442.078661170928 3622.078661170928 4 37 53 183 8503
1728	310868 143 141690547 151053039 3442.078661170928 3622.078661170928 4 8 18 56 840
1799	311011 35 149334993 149334993 3580.00137043132 3580.00137043132 1 42 42 42 1764
1798	311046 35 149334993 149334993 3580.00137043132 3580.00137043132 1 20 20 20 400
1647	311081 216 131448270 150042153 3299.062987470627 3599.062987470627 6 37 57 279 13279
1646	311297 215 131448270 150042153 3299.062987470627 3599.062987470627 6 8 15 64 710
1777	311512 72 147432307 150152279 3542.051807277719 3602.051807277719 2 25 33 58 1714
1776	311584 71 147432307 150152279 3542.051807277719 3602.051807277719 2 4 11 15 137
vector 1818 World.node[939].appl.middleware.ExampleService proof_size ETV
vector 1819 World.node[939].appl.middleware.ExampleService proof_requested ETV
vector 1820 World.node[937].appl.middleware.ExampleService proof_size ETV
vector 1821 World.node[937].appl.middleware.ExampleService proof_requested ETV
1625	311961 252 129501448 151227111 3267.018550942047 3627.018550942047 7 41 59 341 16863
1624	312213 250 129501448 151227111 3267.018550942047 3627.018550942047 7 0 25 97 1703
1801	312463 36 149338502 149338502 3580.061336390441 3580.061336390441 1 29 29 29 841
1800	312499 35 149338502 149338502 3580.061336390441 3580.061336390441 1 8 8 8 64
1751	312534 108 144574555 150283674 3485.003614656813 3605.003614656813 3 33 45 122 5050
1750	312642 105 144574555 150283674 3485.003614656813 3605.003614656813 3 1 8 12 74
1783	312747 72 147719857 150438408 3548.044005290233 3608.044005290233 2 30 48 78 3204
1782	312819 72 147719857 150438408 3548.044005290233 3608.044005290233 2 11 12 23 265
vector 1822 World.node[942].appl.middleware.ExampleService proof_size ETV
vector 1823 World.node[942].appl.middleware.ExampleService proof_requested ETV
1771	313044 72 146798579 149651775 3528.034104095935 3588.034104095935 2 43 45 88 3874
1770	313116 72 146798579 149651775 3528.034104095935 3588.034104095935 2 11 13 24 290
1797	313188 72 149138873 151487364 3576.009186125523 3636.009186125523 2 27 43 70 2578
1796	313260 71 149138873 151487364 3576.009186125523 3636.009186125523 2 6 10 16 136
1813	313331 36 150813303 150813303 3616.090595394978 3616.090595394978 1 43 43 43 1849
1812	313367 36 150813303 150813303 3616.090595394978 3616.090595394978 1 16 16 16 256
1753	313403 144 144988664 152303117 3491.012797416723 3671.012797416723 4 29 52 174 7870
1752	313547 140 144988664 152303117 3491.012797416723 3671.012797416723 4 4 8 26 178
1607	313687 280 127614091 151816675 3230.07605788759 3650.07605788759 8 32 57 367 17301
1606	313967 277 127614091 151816675 3230.07605788759 3650.07605788759 8 1 21 108 1822
1755	314244 144 144989035 152303346 3491.013556077122 3671.013556077122 4 25 52 168 7470
1754	314388 142 144989035 152303346 3491.013556077122 3671.013556077122 4 0 15 26 326
1803	314530 72 149502939 151695739 3584.036415656656 3644.036415656656 2 34 36 70 2452
1802	314602 71 149502939 151695739 3584.036415656656 3644.036415656656 2 9 11 20 202
1787	314673 108 147978110 152340709 3553.000640865415 3673.000640865415 3 24 44 99 3473
1786	314781 105 147978110 152340709 3553.000640865415 3673.000640865415 3 2 5 10 38
1709	314886 180 139015628 151697741 3404.098253062367 3644.098253062367 5 35 55 225 10471
1708	315066 179 139015628 151697741 3404.098253062367 3644.098253062367 5 9 19 64 880
1775	315245 108 147345242 152037491 3540.061405778397 3660.061405778397 3 24 41 100 3482
1774	315353 107 147345242 152037491 3540.061405778397 3660.061405778397 3 8 12 32 352
1811	315460 72 150653619 152325908 3612.091122321086 3672.091122321086 2 32 41 73 2705
1810	315532 71 150653619 152325908 3612.091122321086 3672.091122321086 2 9 16 25 337
1791	315603 108 148478462 152495655 3563.016419704515 3683.016419704515 3 28 42 99 3389
1790	315711 107 148478462 152495655 3563.016419704515 3683.016419704515 3 5 17 32 414
1823	315818 72 151441601 152638550 3634.019752797508 3694.019752797508 2 13 35 48 1394
1822	315890 70 151441601 152638550 3634.019752797508 3694.019752797508 2 2 6 8 40
1789	315960 105 147980536 152342272 3553.02372788107 3673.02372788107 3 21 47 112 4586
1788	316065 102 147980536 152342272 3553.02372788107 3673.02372788107 3 2 9 15 101
1735	316167 180 142788846 152718368 3460.028460742929 3700.028460742929 5 24 49 195 8013
1734	316347 176 142788846 152718368 3460.028460742929 3700.028460742929 5 0 10 29 225
1741	316523 180 143006921 152754390 3463.059831054765 3703.059831054765 5 15 44 175 6699
1740	316703 177 143006921 152754390 3463.059831054765 3703.059831054765 5 1 17 41 531
1809	316880 72 150649203 152324297 3612.044636300276 3672.044636300276 2 32 38 70 2468
1808	316952 72 150649203 152324297 3612.044636300276 3672.044636300276 2 20 27 47 1129
1793	317024 108 148969579 152612083 3572.096321211709 3692.096321211709 3 24 49 112 4498
1792	317132 107 148969579 152612083 3572.096321211709 3692.096321211709 3 2 13 28 342
1773	317239 144 146984484 152833262 3532.020359569765 3712.020359569765 4 18 42 130 4570
1772	317383 141 146984484 152833262 3532.020359569765 3712.020359569765 4 7 17 40 466
1699	317524 245 137008225 152995405 3380.05256023719 3740.05256023719 7 16 51 273 11543
1698	317769 239 137008225 152995405 3380.05256023719 3740.05256023719 7 0 28 51 955
1795	318008 144 149100665 153091636 3575.039612883586 3755.039612883586 4 11 31 94 2442
1794	318152 142 149100665 153091636 3575.039612883586 3755.039612883586 4 3 11 33 311
1781	318294 144 147624771 152922145 3546.060294766934 3726.060294766934 4 16 44 127 4521
1780	318438 143 147624771 152922145 3546.060294766934 3726.060294766934 4 5 17 47 627
1817	318581 108 150967061 152995279 3620.049752968317 3740.049752968317 3 12 43 82 2722
1816	318689 107 150967061 152995279 3620.049752968317 3740.049752968317 3 1 21 32 542
1819	318796 108 151226544 153038401 3627.016292454698 3747.016292454698 3 12 37 67 1837
1818	318904 106 151226544 153038401 3627.016292454698 3747.016292454698 3 3 13 22 214
1723	319010 216 140805267 152942968 3430.017486970383 3730.017486970383 6 10 54 230 10250
1722	319226 213 140805267 152942968 3430.017486970383 3730.017486970383 6 1 23 69 1233
1717	319439 252 140059153 153185382 3420.016645570425 3780.016645570425 7 11 52 241 9757
1716	319691 247 140059153 153185382 3420.016645570425 3780.016645570425 7 0 13 52 504
1759	319938 180 145852589 153052358 3509.095361140976 3749.095361140976 5 16 49 176 6998
1758	320118 178 145852589 153052358 3509.095361140976 3749.095361140976 5 4 14 49 561
1821	320296 108 151231864 153039515 3627.091421166644 3747.091421166644 3 14 40 82 2580
1820	320404 105 151231864 153039515 3627.091421166644 3747.091421166644 3 0 5 9 41
1725	320509 251 141033609 153214359 3433.036573712039 3793.036573712039 7 8 53 248 10646
1724	320760 248 141033609 153214359 3433.036573712039 3793.036573712039 7 0 18 49 625
1805	321008 179 149504189 153254576 3584.070529617951 3824.070529617951 5 6 34 109 3001
1804	321187 178 149504189 153254576 3584.070529617951 3824.070529617951 5 1 18 43 573
1815	321365 178 150890648 153295386 3618.033796141762 3858.033796141762 5 4 39 96 2636
1814	321543 176 150890648 153295386 3618.033796141762 3858.033796141762 5 2 11 28 224
1739	321719 244 142940547 153252476 3462.03117707849 3822.03117707849 7 5 53 212 8234
1738	321963 241 142940547 153252476 3462.03117707849 3822.03117707849 7 1 18 66 848
1761	322204 250 145896921 153303775 3510.093069926952 3870.093069926952 7 4 47 160 5126
1760	322454 247 145896921 153303775 3510.093069926952 3870.093069926952 7 1 14 49 519
1785	322701 213 147771681 153282528 3549.052558506676 3846.11082344855 6 5 46 153 5471
1784	322914 211 147771681 153282528 3549.052558506676 3846.11082344855 6 0 17 48 622
1779	323125 250 147478352 153317625 3543.050714565674 3900.143445556417 7 1 39 142 4332
1778	323375 247 147478352 153317625 3543.050714565674 3900.143445556417 7 1 16 50 540
1807	323622 214 150119800 153317285 3601.083335763379 3898.143704238819 6 1 41 108 3196
1806	323836 211 150119800 153317285 3601.083335763379 3898.143704238819 6 1 12 32 258

