version 2
run No_Obstacles-0-20191117-11:17:12-6118
attr configname No_Obstacles
attr datetime 20191117-11:17:12
attr experiment No_Obstacles
attr inifile omnetpp.ini
attr iterationvars $0=0
attr iterationvarsf 0-
attr measurement $0=0
attr network artery.veins.World
attr processid 6118
attr repetition 0
attr replication #0
attr resultdir results
attr runnumber 0
attr seedset 0
param *.traci.launcher.sumocfg "\"No_Obstacles/run.sumo.cfg\""
param *.node[*].nic.mac1609_4.txPower 20mW
param *.node[*].nic.phy80211p.decider "xmldoc(\"config.xml\")"
param *.node[*].nic.phy80211p.analogueModels "xmldoc(\"config.xml\")"
param *.node[*].applType "\"artery.veins.ApplicationLayer\""
param *.node[*].appl.middleware.updateInterval 0.1s
param *.node[*].appl.middleware.datetime "\"2013-06-01 12:35:00\""
param *.node[*].appl.middleware.services "xmldoc(\"services.xml\")"
param *.node[*].appl.middleware.ExampleService.DecisionLogic 0
param *.node[*].appl.middleware.ExampleService.NeighboringWindow 60
param *.traci.core.version -1
param *.traci.launcher.typename "\"PosixLauncher\""
param *.playgroundSizeX 4000m
param *.playgroundSizeY 4000m
param *.playgroundSizeZ 50m
param *.connectionManager.maxInterfDist 1500m
param *.connectionManager.sendDirect true
param *.connectionManager.coreDebug false

scalar World.node[2].appl.middleware.CaService #cam_sent 56
scalar World.node[2].appl.middleware.ExampleService #full_proofs 0
scalar World.node[2].appl.middleware.ExampleService #half_proofs 1
scalar World.node[2].appl.middleware.ExampleService #failed_proofs 0
scalar World.node[2].appl.middleware.ExampleService #loc_proof_send 1
scalar World.node[2].nic.phy80211p busyTime 0.0019071111111111
scalar World.node[2].nic.mac1609_4 ReceivedUnicastPackets 0
scalar World.node[2].nic.mac1609_4 ReceivedBroadcasts 62
scalar World.node[2].nic.mac1609_4 SentPackets 57
scalar World.node[2].nic.mac1609_4 SentAcknowledgements 0
scalar World.node[2].nic.mac1609_4 SNIRLostPackets 151
scalar World.node[2].nic.mac1609_4 RXTXLostPackets 0
scalar World.node[2].nic.mac1609_4 TotalLostPackets 151
scalar World.node[2].nic.mac1609_4 DroppedPacketsInMac 0
scalar World.node[2].nic.mac1609_4 TooLittleTime 0
scalar World.node[2].nic.mac1609_4 TimesIntoBackoff 57
scalar World.node[2].nic.mac1609_4 SlotsBackoff 421
scalar World.node[2].nic.mac1609_4 NumInternalContention 0
scalar World.node[2].nic.mac1609_4 totalBusyTime 0.043641
scalar World.node[3].appl.middleware.CaService #cam_sent 94
scalar World.node[3].appl.middleware.ExampleService #full_proofs 1
scalar World.node[3].appl.middleware.ExampleService #half_proofs 0
scalar World.node[3].appl.middleware.ExampleService #failed_proofs 0
scalar World.node[3].appl.middleware.ExampleService #loc_proof_send 4
scalar World.node[3].nic.phy80211p busyTime 0.0030451428571429
scalar World.node[3].nic.mac1609_4 ReceivedUnicastPackets 0
scalar World.node[3].nic.mac1609_4 ReceivedBroadcasts 478
scalar World.node[3].nic.mac1609_4 SentPackets 98
scalar World.node[3].nic.mac1609_4 SentAcknowledgements 0
scalar World.node[3].nic.mac1609_4 SNIRLostPackets 52
scalar World.node[3].nic.mac1609_4 RXTXLostPackets 7
scalar World.node[3].nic.mac1609_4 TotalLostPackets 59
scalar World.node[3].nic.mac1609_4 DroppedPacketsInMac 0
scalar World.node[3].nic.mac1609_4 TooLittleTime 0
scalar World.node[3].nic.mac1609_4 TimesIntoBackoff 99
scalar World.node[3].nic.mac1609_4 SlotsBackoff 751
scalar World.node[3].nic.mac1609_4 NumInternalContention 0
scalar World.node[3].nic.mac1609_4 totalBusyTime 0.099802134174
scalar World.node[9].appl.middleware.CaService #cam_sent 104
scalar World.node[9].appl.middleware.ExampleService #full_proofs 0
scalar World.node[9].appl.middleware.ExampleService #half_proofs 0
scalar World.node[9].appl.middleware.ExampleService #failed_proofs 0
scalar World.node[9].appl.middleware.ExampleService #loc_proof_send 5
scalar World.node[9].nic.phy80211p busyTime 0.0057445161290322
scalar World.node[9].nic.mac1609_4 ReceivedUnicastPackets 0
scalar World.node[9].nic.mac1609_4 ReceivedBroadcasts 991
scalar World.node[9].nic.mac1609_4 SentPackets 109
scalar World.node[9].nic.mac1609_4 SentAcknowledgements 0
scalar World.node[9].nic.mac1609_4 SNIRLostPackets 122
scalar World.node[9].nic.mac1609_4 RXTXLostPackets 13
scalar World.node[9].nic.mac1609_4 TotalLostPackets 135
scalar World.node[9].nic.mac1609_4 DroppedPacketsInMac 0
scalar World.node[9].nic.mac1609_4 TooLittleTime 0
scalar World.node[9].nic.mac1609_4 TimesIntoBackoff 109
scalar World.node[9].nic.mac1609_4 SlotsBackoff 841
scalar World.node[9].nic.mac1609_4 NumInternalContention 0
scalar World.node[9].nic.mac1609_4 totalBusyTime 0.191149
scalar World.node[21].appl.middleware.CaService #cam_sent 21953
scalar World.node[21].appl.middleware.ExampleService #full_proofs 0
scalar World.node[21].appl.middleware.ExampleService #half_proofs 0
scalar World.node[21].appl.middleware.ExampleService #failed_proofs 0
scalar World.node[21].appl.middleware.ExampleService #loc_proof_send 2
scalar World.node[21].nic.phy80211p busyTime 0.008172
scalar World.node[21].nic.mac1609_4 ReceivedUnicastPackets 0
scalar World.node[21].nic.mac1609_4 ReceivedBroadcasts 491
scalar World.node[21].nic.mac1609_4 SentPackets 36
scalar World.node[21].nic.mac1609_4 SentAcknowledgements 0
scalar World.node[21].nic.mac1609_4 SNIRLostPackets 16
scalar World.node[21].nic.mac1609_4 RXTXLostPackets 13
scalar World.node[21].nic.mac1609_4 TotalLostPackets 29
scalar World.node[21].nic.mac1609_4 DroppedPacketsInMac 0
scalar World.node[21].nic.mac1609_4 TooLittleTime 0
scalar World.node[21].nic.mac1609_4 TimesIntoBackoff 36
scalar World.node[21].nic.mac1609_4 SlotsBackoff 279
scalar World.node[21].nic.mac1609_4 NumInternalContention 0
scalar World.node[21].nic.mac1609_4 totalBusyTime 0.085780171612
scalar World.node[0].appl.middleware.CaService #cam_sent 208
scalar World.node[0].appl.middleware.ExampleService #full_proofs 0
scalar World.node[0].appl.middleware.ExampleService #half_proofs 1
scalar World.node[0].appl.middleware.ExampleService #failed_proofs 0
scalar World.node[0].appl.middleware.ExampleService #loc_proof_send 24
scalar World.node[0].nic.phy80211p busyTime 0.0057959999999999
scalar World.node[0].nic.mac1609_4 ReceivedUnicastPackets 0
scalar World.node[0].nic.mac1609_4 ReceivedBroadcasts 3595
scalar World.node[0].nic.mac1609_4 SentPackets 232
scalar World.node[0].nic.mac1609_4 SentAcknowledgements 0
scalar World.node[0].nic.mac1609_4 SNIRLostPackets 238
scalar World.node[0].nic.mac1609_4 RXTXLostPackets 149
scalar World.node[0].nic.mac1609_4 TotalLostPackets 387
scalar World.node[0].nic.mac1609_4 DroppedPacketsInMac 0
scalar World.node[0].nic.mac1609_4 TooLittleTime 0
scalar World.node[0].nic.mac1609_4 TimesIntoBackoff 236
scalar World.node[0].nic.mac1609_4 SlotsBackoff 1743
scalar World.node[0].nic.mac1609_4 NumInternalContention 0
scalar World.node[0].nic.mac1609_4 totalBusyTime 0.640696084887
scalar World.node[1].appl.middleware.CaService #cam_sent 274
scalar World.node[1].appl.middleware.ExampleService #full_proofs 0
scalar World.node[1].appl.middleware.ExampleService #half_proofs 0
scalar World.node[1].appl.middleware.ExampleService #failed_proofs 1
scalar World.node[1].appl.middleware.ExampleService #loc_proof_send 19
scalar World.node[1].nic.phy80211p busyTime 0.0060080761904761
scalar World.node[1].nic.mac1609_4 ReceivedUnicastPackets 0
scalar World.node[1].nic.mac1609_4 ReceivedBroadcasts 3260
scalar World.node[1].nic.mac1609_4 SentPackets 293
scalar World.node[1].nic.mac1609_4 SentAcknowledgements 0
scalar World.node[1].nic.mac1609_4 SNIRLostPackets 686
scalar World.node[1].nic.mac1609_4 RXTXLostPackets 109
scalar World.node[1].nic.mac1609_4 TotalLostPackets 795
scalar World.node[1].nic.mac1609_4 DroppedPacketsInMac 0
scalar World.node[1].nic.mac1609_4 TooLittleTime 0
scalar World.node[1].nic.mac1609_4 TimesIntoBackoff 295
scalar World.node[1].nic.mac1609_4 SlotsBackoff 2212
scalar World.node[1].nic.mac1609_4 NumInternalContention 0
scalar World.node[1].nic.mac1609_4 totalBusyTime 0.662341519617
scalar World.node[6].appl.middleware.CaService #cam_sent 342
scalar World.node[6].appl.middleware.ExampleService #full_proofs 0
scalar World.node[6].appl.middleware.ExampleService #half_proofs 2
scalar World.node[6].appl.middleware.ExampleService #failed_proofs 0
scalar World.node[6].appl.middleware.ExampleService #loc_proof_send 31
scalar World.node[6].nic.phy80211p busyTime 0.0084720672268907
scalar World.node[6].nic.mac1609_4 ReceivedUnicastPackets 0
scalar World.node[6].nic.mac1609_4 ReceivedBroadcasts 5970
scalar World.node[6].nic.mac1609_4 SentPackets 373
scalar World.node[6].nic.mac1609_4 SentAcknowledgements 0
scalar World.node[6].nic.mac1609_4 SNIRLostPackets 319
scalar World.node[6].nic.mac1609_4 RXTXLostPackets 232
scalar World.node[6].nic.mac1609_4 TotalLostPackets 551
scalar World.node[6].nic.mac1609_4 DroppedPacketsInMac 0
scalar World.node[6].nic.mac1609_4 TooLittleTime 0
scalar World.node[6].nic.mac1609_4 TimesIntoBackoff 377
scalar World.node[6].nic.mac1609_4 SlotsBackoff 2872
scalar World.node[6].nic.mac1609_4 NumInternalContention 0
scalar World.node[6].nic.mac1609_4 totalBusyTime 1.049149287114
scalar World.node[19].appl.middleware.CaService #cam_sent 210
scalar World.node[19].appl.middleware.ExampleService #full_proofs 0
scalar World.node[19].appl.middleware.ExampleService #half_proofs 2
scalar World.node[19].appl.middleware.ExampleService #failed_proofs 0
scalar World.node[19].appl.middleware.ExampleService #loc_proof_send 25
scalar World.node[19].nic.phy80211p busyTime 0.010837052631579
scalar World.node[19].nic.mac1609_4 ReceivedUnicastPackets 0
scalar World.node[19].nic.mac1609_4 ReceivedBroadcasts 4517
scalar World.node[19].nic.mac1609_4 SentPackets 235
scalar World.node[19].nic.mac1609_4 SentAcknowledgements 0
scalar World.node[19].nic.mac1609_4 SNIRLostPackets 641
scalar World.node[19].nic.mac1609_4 RXTXLostPackets 196
scalar World.node[19].nic.mac1609_4 TotalLostPackets 837
scalar World.node[19].nic.mac1609_4 DroppedPacketsInMac 0
scalar World.node[19].nic.mac1609_4 TooLittleTime 0
scalar World.node[19].nic.mac1609_4 TimesIntoBackoff 240
scalar World.node[19].nic.mac1609_4 SlotsBackoff 1738
scalar World.node[19].nic.mac1609_4 NumInternalContention 0
scalar World.node[19].nic.mac1609_4 totalBusyTime 0.836187503634
scalar World.node[22].appl.middleware.CaService #cam_sent 188
scalar World.node[22].appl.middleware.ExampleService #full_proofs 0
scalar World.node[22].appl.middleware.ExampleService #half_proofs 1
scalar World.node[22].appl.middleware.ExampleService #failed_proofs 0
scalar World.node[22].appl.middleware.ExampleService #loc_proof_send 22
scalar World.node[22].nic.phy80211p busyTime 0.011874571428571
scalar World.node[22].nic.mac1609_4 ReceivedUnicastPackets 0
scalar World.node[22].nic.mac1609_4 ReceivedBroadcasts 3525
scalar World.node[22].nic.mac1609_4 SentPackets 210
scalar World.node[22].nic.mac1609_4 SentAcknowledgements 0
scalar World.node[22].nic.mac1609_4 SNIRLostPackets 678
scalar World.node[22].nic.mac1609_4 RXTXLostPackets 142
scalar World.node[22].nic.mac1609_4 TotalLostPackets 820
scalar World.node[22].nic.mac1609_4 DroppedPacketsInMac 0
scalar World.node[22].nic.mac1609_4 TooLittleTime 0
scalar World.node[22].nic.mac1609_4 TimesIntoBackoff 212
scalar World.node[22].nic.mac1609_4 SlotsBackoff 1621
scalar World.node[22].nic.mac1609_4 NumInternalContention 0
scalar World.node[22].nic.mac1609_4 totalBusyTime 0.675034523502
scalar World.node[13].appl.middleware.CaService #cam_sent 337
scalar World.node[13].appl.middleware.ExampleService #full_proofs 0
scalar World.node[13].appl.middleware.ExampleService #half_proofs 1
scalar World.node[13].appl.middleware.ExampleService #failed_proofs 1
scalar World.node[13].appl.middleware.ExampleService #loc_proof_send 33
scalar World.node[13].nic.phy80211p busyTime 0.01005463063063
scalar World.node[13].nic.mac1609_4 ReceivedUnicastPackets 0
scalar World.node[13].nic.mac1609_4 ReceivedBroadcasts 6397
scalar World.node[13].nic.mac1609_4 SentPackets 370
scalar World.node[13].nic.mac1609_4 SentAcknowledgements 0
scalar World.node[13].nic.mac1609_4 SNIRLostPackets 627
scalar World.node[13].nic.mac1609_4 RXTXLostPackets 199
scalar World.node[13].nic.mac1609_4 TotalLostPackets 826
scalar World.node[13].nic.mac1609_4 DroppedPacketsInMac 0
scalar World.node[13].nic.mac1609_4 TooLittleTime 0
scalar World.node[13].nic.mac1609_4 TimesIntoBackoff 373
scalar World.node[13].nic.mac1609_4 SlotsBackoff 2708
scalar World.node[13].nic.mac1609_4 NumInternalContention 0
scalar World.node[13].nic.mac1609_4 totalBusyTime 1.139282673611
scalar World.node[8].appl.middleware.CaService #cam_sent 352
scalar World.node[8].appl.middleware.ExampleService #full_proofs 0
scalar World.node[8].appl.middleware.ExampleService #half_proofs 2
scalar World.node[8].appl.middleware.ExampleService #failed_proofs 0
scalar World.node[8].appl.middleware.ExampleService #loc_proof_send 41
scalar World.node[8].nic.phy80211p busyTime 0.0097037058823524
scalar World.node[8].nic.mac1609_4 ReceivedUnicastPackets 0
scalar World.node[8].nic.mac1609_4 ReceivedBroadcasts 7248
scalar World.node[8].nic.mac1609_4 SentPackets 393
scalar World.node[8].nic.mac1609_4 SentAcknowledgements 0
scalar World.node[8].nic.mac1609_4 SNIRLostPackets 1021
scalar World.node[8].nic.mac1609_4 RXTXLostPackets 393
scalar World.node[8].nic.mac1609_4 TotalLostPackets 1414
scalar World.node[8].nic.mac1609_4 DroppedPacketsInMac 0
scalar World.node[8].nic.mac1609_4 TooLittleTime 0
scalar World.node[8].nic.mac1609_4 TimesIntoBackoff 402
scalar World.node[8].nic.mac1609_4 SlotsBackoff 3114
scalar World.node[8].nic.mac1609_4 NumInternalContention 0
scalar World.node[8].nic.mac1609_4 totalBusyTime 1.344817407194
scalar World.node[35].appl.middleware.CaService #cam_sent 144
scalar World.node[35].appl.middleware.ExampleService #full_proofs 0
scalar World.node[35].appl.middleware.ExampleService #half_proofs 0
scalar World.node[35].appl.middleware.ExampleService #failed_proofs 0
scalar World.node[35].appl.middleware.ExampleService #loc_proof_send 21
scalar World.node[35].nic.phy80211p busyTime 0.013720372093023
scalar World.node[35].nic.mac1609_4 ReceivedUnicastPackets 0
scalar World.node[35].nic.mac1609_4 ReceivedBroadcasts 3316
scalar World.node[35].nic.mac1609_4 SentPackets 165
scalar World.node[35].nic.mac1609_4 SentAcknowledgements 0
scalar World.node[35].nic.mac1609_4 SNIRLostPackets 444
scalar World.node[35].nic.mac1609_4 RXTXLostPackets 163
scalar World.node[35].nic.mac1609_4 TotalLostPackets 607
scalar World.node[35].nic.mac1609_4 DroppedPacketsInMac 0
scalar World.node[35].nic.mac1609_4 TooLittleTime 0
scalar World.node[35].nic.mac1609_4 TimesIntoBackoff 168
scalar World.node[35].nic.mac1609_4 SlotsBackoff 1324
scalar World.node[35].nic.mac1609_4 NumInternalContention 0
scalar World.node[35].nic.mac1609_4 totalBusyTime 0.583325111379
scalar World.node[15].appl.middleware.CaService #cam_sent 409
scalar World.node[15].appl.middleware.ExampleService #full_proofs 0
scalar World.node[15].appl.middleware.ExampleService #half_proofs 2
scalar World.node[15].appl.middleware.ExampleService #failed_proofs 0
scalar World.node[15].appl.middleware.ExampleService #loc_proof_send 46
scalar World.node[15].nic.phy80211p busyTime 0.010962328358208
scalar World.node[15].nic.mac1609_4 ReceivedUnicastPackets 0
scalar World.node[15].nic.mac1609_4 ReceivedBroadcasts 8259
scalar World.node[15].nic.mac1609_4 SentPackets 455
scalar World.node[15].nic.mac1609_4 SentAcknowledgements 0
scalar World.node[15].nic.mac1609_4 SNIRLostPackets 993
scalar World.node[15].nic.mac1609_4 RXTXLostPackets 365
scalar World.node[15].nic.mac1609_4 TotalLostPackets 1358
scalar World.node[15].nic.mac1609_4 DroppedPacketsInMac 0
scalar World.node[15].nic.mac1609_4 TooLittleTime 0
scalar World.node[15].nic.mac1609_4 TimesIntoBackoff 465
scalar World.node[15].nic.mac1609_4 SlotsBackoff 3614
scalar World.node[15].nic.mac1609_4 NumInternalContention 0
scalar World.node[15].nic.mac1609_4 totalBusyTime 1.490752488136
scalar World.node[16].appl.middleware.CaService #cam_sent 351
scalar World.node[16].appl.middleware.ExampleService #full_proofs 0
scalar World.node[16].appl.middleware.ExampleService #half_proofs 2
scalar World.node[16].appl.middleware.ExampleService #failed_proofs 0
scalar World.node[16].appl.middleware.ExampleService #loc_proof_send 40
scalar World.node[16].nic.phy80211p busyTime 0.011182106870228
scalar World.node[16].nic.mac1609_4 ReceivedUnicastPackets 0
scalar World.node[16].nic.mac1609_4 ReceivedBroadcasts 6839
scalar World.node[16].nic.mac1609_4 SentPackets 391
scalar World.node[16].nic.mac1609_4 SentAcknowledgements 0
scalar World.node[16].nic.mac1609_4 SNIRLostPackets 2394
scalar World.node[16].nic.mac1609_4 RXTXLostPackets 323
scalar World.node[16].nic.mac1609_4 TotalLostPackets 2717
scalar World.node[16].nic.mac1609_4 DroppedPacketsInMac 0
scalar World.node[16].nic.mac1609_4 TooLittleTime 0
scalar World.node[16].nic.mac1609_4 TimesIntoBackoff 396
scalar World.node[16].nic.mac1609_4 SlotsBackoff 2964
scalar World.node[16].nic.mac1609_4 NumInternalContention 0
scalar World.node[16].nic.mac1609_4 totalBusyTime 1.470191486402
scalar World.node[40].appl.middleware.CaService #cam_sent 92
scalar World.node[40].appl.middleware.ExampleService #full_proofs 0
scalar World.node[40].appl.middleware.ExampleService #half_proofs 1
scalar World.node[40].appl.middleware.ExampleService #failed_proofs 0
scalar World.node[40].appl.middleware.ExampleService #loc_proof_send 12
scalar World.node[40].nic.phy80211p busyTime 0.013904592592592
scalar World.node[40].nic.mac1609_4 ReceivedUnicastPackets 0
scalar World.node[40].nic.mac1609_4 ReceivedBroadcasts 2009
scalar World.node[40].nic.mac1609_4 SentPackets 104
scalar World.node[40].nic.mac1609_4 SentAcknowledgements 0
scalar World.node[40].nic.mac1609_4 SNIRLostPackets 390
scalar World.node[40].nic.mac1609_4 RXTXLostPackets 116
scalar World.node[40].nic.mac1609_4 TotalLostPackets 506
scalar World.node[40].nic.mac1609_4 DroppedPacketsInMac 0
scalar World.node[40].nic.mac1609_4 TooLittleTime 0
scalar World.node[40].nic.mac1609_4 TimesIntoBackoff 106
scalar World.node[40].nic.mac1609_4 SlotsBackoff 799
scalar World.node[40].nic.mac1609_4 NumInternalContention 0
scalar World.node[40].nic.mac1609_4 totalBusyTime 0.369192605738
scalar World.node[14].appl.middleware.CaService #cam_sent 482
scalar World.node[14].appl.middleware.ExampleService #full_proofs 0
scalar World.node[14].appl.middleware.ExampleService #half_proofs 2
scalar World.node[14].appl.middleware.ExampleService #failed_proofs 0
scalar World.node[14].appl.middleware.ExampleService #loc_proof_send 47
scalar World.node[14].nic.phy80211p busyTime 0.011195388888888
scalar World.node[14].nic.mac1609_4 ReceivedUnicastPackets 0
scalar World.node[14].nic.mac1609_4 ReceivedBroadcasts 8294
scalar World.node[14].nic.mac1609_4 SentPackets 529
scalar World.node[14].nic.mac1609_4 SentAcknowledgements 0
scalar World.node[14].nic.mac1609_4 SNIRLostPackets 1886
scalar World.node[14].nic.mac1609_4 RXTXLostPackets 333
scalar World.node[14].nic.mac1609_4 TotalLostPackets 2219
scalar World.node[14].nic.mac1609_4 DroppedPacketsInMac 0
scalar World.node[14].nic.mac1609_4 TooLittleTime 0
scalar World.node[14].nic.mac1609_4 TimesIntoBackoff 534
scalar World.node[14].nic.mac1609_4 SlotsBackoff 3978
scalar World.node[14].nic.mac1609_4 NumInternalContention 0
scalar World.node[14].nic.mac1609_4 totalBusyTime 1.628193574137
scalar World.node[10].appl.middleware.CaService #cam_sent 399
scalar World.node[10].appl.middleware.ExampleService #full_proofs 0
scalar World.node[10].appl.middleware.ExampleService #half_proofs 3
scalar World.node[10].appl.middleware.ExampleService #failed_proofs 0
scalar World.node[10].appl.middleware.ExampleService #loc_proof_send 51
scalar World.node[10].nic.phy80211p busyTime 0.01079275471698
scalar World.node[10].nic.mac1609_4 ReceivedUnicastPackets 0
scalar World.node[10].nic.mac1609_4 ReceivedBroadcasts 9169
scalar World.node[10].nic.mac1609_4 SentPackets 450
scalar World.node[10].nic.mac1609_4 SentAcknowledgements 0
scalar World.node[10].nic.mac1609_4 SNIRLostPackets 1587
scalar World.node[10].nic.mac1609_4 RXTXLostPackets 560
scalar World.node[10].nic.mac1609_4 TotalLostPackets 2147
scalar World.node[10].nic.mac1609_4 DroppedPacketsInMac 0
scalar World.node[10].nic.mac1609_4 TooLittleTime 0
scalar World.node[10].nic.mac1609_4 TimesIntoBackoff 622
scalar World.node[10].nic.mac1609_4 SlotsBackoff 4618
scalar World.node[10].nic.mac1609_4 NumInternalContention 0
scalar World.node[10].nic.mac1609_4 totalBusyTime 1.740442366683
scalar World.node[7].appl.middleware.CaService #cam_sent 484
scalar World.node[7].appl.middleware.ExampleService #full_proofs 0
scalar World.node[7].appl.middleware.ExampleService #half_proofs 3
scalar World.node[7].appl.middleware.ExampleService #failed_proofs 0
scalar World.node[7].appl.middleware.ExampleService #loc_proof_send 52
scalar World.node[7].nic.phy80211p busyTime 0.010707163841806
scalar World.node[7].nic.mac1609_4 ReceivedUnicastPackets 0
scalar World.node[7].nic.mac1609_4 ReceivedBroadcasts 10472
scalar World.node[7].nic.mac1609_4 SentPackets 536
scalar World.node[7].nic.mac1609_4 SentAcknowledgements 0
scalar World.node[7].nic.mac1609_4 SNIRLostPackets 1419
scalar World.node[7].nic.mac1609_4 RXTXLostPackets 487
scalar World.node[7].nic.mac1609_4 TotalLostPackets 1906
scalar World.node[7].nic.mac1609_4 DroppedPacketsInMac 0
scalar World.node[7].nic.mac1609_4 TooLittleTime 0
scalar World.node[7].nic.mac1609_4 TimesIntoBackoff 540
scalar World.node[7].nic.mac1609_4 SlotsBackoff 4238
scalar World.node[7].nic.mac1609_4 NumInternalContention 0
scalar World.node[7].nic.mac1609_4 totalBusyTime 1.922600773777
scalar World.node[30].appl.middleware.CaService #cam_sent 275
scalar World.node[30].appl.middleware.ExampleService #full_proofs 0
scalar World.node[30].appl.middleware.ExampleService #half_proofs 2
scalar World.node[30].appl.middleware.ExampleService #failed_proofs 0
scalar World.node[30].appl.middleware.ExampleService #loc_proof_send 35
scalar World.node[30].nic.phy80211p busyTime 0.014241582417581
scalar World.node[30].nic.mac1609_4 ReceivedUnicastPackets 0
scalar World.node[30].nic.mac1609_4 ReceivedBroadcasts 6740
scalar World.node[30].nic.mac1609_4 SentPackets 310
scalar World.node[30].nic.mac1609_4 SentAcknowledgements 0
scalar World.node[30].nic.mac1609_4 SNIRLostPackets 1473
scalar World.node[30].nic.mac1609_4 RXTXLostPackets 278
scalar World.node[30].nic.mac1609_4 TotalLostPackets 1751
scalar World.node[30].nic.mac1609_4 DroppedPacketsInMac 0
scalar World.node[30].nic.mac1609_4 TooLittleTime 0
scalar World.node[30].nic.mac1609_4 TimesIntoBackoff 314
scalar World.node[30].nic.mac1609_4 SlotsBackoff 2301
scalar World.node[30].nic.mac1609_4 NumInternalContention 0
scalar World.node[30].nic.mac1609_4 totalBusyTime 1.288935177886
scalar World.node[27].appl.middleware.CaService #cam_sent 374
scalar World.node[27].appl.middleware.ExampleService #full_proofs 0
scalar World.node[27].appl.middleware.ExampleService #half_proofs 2
scalar World.node[27].appl.middleware.ExampleService #failed_proofs 0
scalar World.node[27].appl.middleware.ExampleService #loc_proof_send 46
scalar World.node[27].nic.phy80211p busyTime 0.014409478991595
scalar World.node[27].nic.mac1609_4 ReceivedUnicastPackets 0
scalar World.node[27].nic.mac1609_4 ReceivedBroadcasts 8952
scalar World.node[27].nic.mac1609_4 SentPackets 420
scalar World.node[27].nic.mac1609_4 SentAcknowledgements 0
scalar World.node[27].nic.mac1609_4 SNIRLostPackets 1938
scalar World.node[27].nic.mac1609_4 RXTXLostPackets 403
scalar World.node[27].nic.mac1609_4 TotalLostPackets 2341
scalar World.node[27].nic.mac1609_4 DroppedPacketsInMac 0
scalar World.node[27].nic.mac1609_4 TooLittleTime 0
scalar World.node[27].nic.mac1609_4 TimesIntoBackoff 420
scalar World.node[27].nic.mac1609_4 SlotsBackoff 3230
scalar World.node[27].nic.mac1609_4 NumInternalContention 0
scalar World.node[27].nic.mac1609_4 totalBusyTime 1.701550191037
scalar World.node[33].appl.middleware.CaService #cam_sent 252
scalar World.node[33].appl.middleware.ExampleService #full_proofs 0
scalar World.node[33].appl.middleware.ExampleService #half_proofs 0
scalar World.node[33].appl.middleware.ExampleService #failed_proofs 1
scalar World.node[33].appl.middleware.ExampleService #loc_proof_send 45
scalar World.node[33].nic.phy80211p busyTime 0.015042020202019
scalar World.node[33].nic.mac1609_4 ReceivedUnicastPackets 0
scalar World.node[33].nic.mac1609_4 ReceivedBroadcasts 7742
scalar World.node[33].nic.mac1609_4 SentPackets 297
scalar World.node[33].nic.mac1609_4 SentAcknowledgements 0
scalar World.node[33].nic.mac1609_4 SNIRLostPackets 1685
scalar World.node[33].nic.mac1609_4 RXTXLostPackets 522
scalar World.node[33].nic.mac1609_4 TotalLostPackets 2207
scalar World.node[33].nic.mac1609_4 DroppedPacketsInMac 0
scalar World.node[33].nic.mac1609_4 TooLittleTime 0
scalar World.node[33].nic.mac1609_4 TimesIntoBackoff 302
scalar World.node[33].nic.mac1609_4 SlotsBackoff 2392
scalar World.node[33].nic.mac1609_4 NumInternalContention 0
scalar World.node[33].nic.mac1609_4 totalBusyTime 1.479850319459
scalar World.node[31].appl.middleware.CaService #cam_sent 373
scalar World.node[31].appl.middleware.ExampleService #full_proofs 0
scalar World.node[31].appl.middleware.ExampleService #half_proofs 2
scalar World.node[31].appl.middleware.ExampleService #failed_proofs 0
scalar World.node[31].appl.middleware.ExampleService #loc_proof_send 53
scalar World.node[31].nic.phy80211p busyTime 0.015113762711863
scalar World.node[31].nic.mac1609_4 ReceivedUnicastPackets 0
scalar World.node[31].nic.mac1609_4 ReceivedBroadcasts 9717
scalar World.node[31].nic.mac1609_4 SentPackets 426
scalar World.node[31].nic.mac1609_4 SentAcknowledgements 0
scalar World.node[31].nic.mac1609_4 SNIRLostPackets 1614
scalar World.node[31].nic.mac1609_4 RXTXLostPackets 520
scalar World.node[31].nic.mac1609_4 TotalLostPackets 2134
scalar World.node[31].nic.mac1609_4 DroppedPacketsInMac 0
scalar World.node[31].nic.mac1609_4 TooLittleTime 0
scalar World.node[31].nic.mac1609_4 TimesIntoBackoff 436
scalar World.node[31].nic.mac1609_4 SlotsBackoff 3300
scalar World.node[31].nic.mac1609_4 NumInternalContention 0
scalar World.node[31].nic.mac1609_4 totalBusyTime 1.782690951028
scalar World.node[24].appl.middleware.CaService #cam_sent 424
scalar World.node[24].appl.middleware.ExampleService #full_proofs 0
scalar World.node[24].appl.middleware.ExampleService #half_proofs 3
scalar World.node[24].appl.middleware.ExampleService #failed_proofs 0
scalar World.node[24].appl.middleware.ExampleService #loc_proof_send 60
scalar World.node[24].nic.phy80211p busyTime 0.014468799999998
scalar World.node[24].nic.mac1609_4 ReceivedUnicastPackets 0
scalar World.node[24].nic.mac1609_4 ReceivedBroadcasts 10944
scalar World.node[24].nic.mac1609_4 SentPackets 484
scalar World.node[24].nic.mac1609_4 SentAcknowledgements 0
scalar World.node[24].nic.mac1609_4 SNIRLostPackets 1901
scalar World.node[24].nic.mac1609_4 RXTXLostPackets 543
scalar World.node[24].nic.mac1609_4 TotalLostPackets 2444
scalar World.node[24].nic.mac1609_4 DroppedPacketsInMac 0
scalar World.node[24].nic.mac1609_4 TooLittleTime 0
scalar World.node[24].nic.mac1609_4 TimesIntoBackoff 500
scalar World.node[24].nic.mac1609_4 SlotsBackoff 3864
scalar World.node[24].nic.mac1609_4 NumInternalContention 0
scalar World.node[24].nic.mac1609_4 totalBusyTime 2.022900429086
scalar World.node[12].appl.middleware.CaService #cam_sent 641
scalar World.node[12].appl.middleware.ExampleService #full_proofs 0
scalar World.node[12].appl.middleware.ExampleService #half_proofs 3
scalar World.node[12].appl.middleware.ExampleService #failed_proofs 0
scalar World.node[12].appl.middleware.ExampleService #loc_proof_send 65
scalar World.node[12].nic.phy80211p busyTime 0.012458773869346
scalar World.node[12].nic.mac1609_4 ReceivedUnicastPackets 0
scalar World.node[12].nic.mac1609_4 ReceivedBroadcasts 12502
scalar World.node[12].nic.mac1609_4 SentPackets 706
scalar World.node[12].nic.mac1609_4 SentAcknowledgements 0
scalar World.node[12].nic.mac1609_4 SNIRLostPackets 3196
scalar World.node[12].nic.mac1609_4 RXTXLostPackets 538
scalar World.node[12].nic.mac1609_4 TotalLostPackets 3734
scalar World.node[12].nic.mac1609_4 DroppedPacketsInMac 0
scalar World.node[12].nic.mac1609_4 TooLittleTime 0
scalar World.node[12].nic.mac1609_4 TimesIntoBackoff 722
scalar World.node[12].nic.mac1609_4 SlotsBackoff 5331
scalar World.node[12].nic.mac1609_4 NumInternalContention 0
scalar World.node[12].nic.mac1609_4 totalBusyTime 2.496916465812
scalar World.node[53].appl.middleware.CaService #cam_sent 108
scalar World.node[53].appl.middleware.ExampleService #full_proofs 0
scalar World.node[53].appl.middleware.ExampleService #half_proofs 0
scalar World.node[53].appl.middleware.ExampleService #failed_proofs 0
scalar World.node[53].appl.middleware.ExampleService #loc_proof_send 14
scalar World.node[53].nic.phy80211p busyTime 0.017262
scalar World.node[53].nic.mac1609_4 ReceivedUnicastPackets 0
scalar World.node[53].nic.mac1609_4 ReceivedBroadcasts 2419
scalar World.node[53].nic.mac1609_4 SentPackets 122
scalar World.node[53].nic.mac1609_4 SentAcknowledgements 0
scalar World.node[53].nic.mac1609_4 SNIRLostPackets 1083
scalar World.node[53].nic.mac1609_4 RXTXLostPackets 202
scalar World.node[53].nic.mac1609_4 TotalLostPackets 1285
scalar World.node[53].nic.mac1609_4 DroppedPacketsInMac 0
scalar World.node[53].nic.mac1609_4 TooLittleTime 0
scalar World.node[53].nic.mac1609_4 TimesIntoBackoff 221
scalar World.node[53].nic.mac1609_4 SlotsBackoff 1736
scalar World.node[53].nic.mac1609_4 NumInternalContention 0
scalar World.node[53].nic.mac1609_4 totalBusyTime 0.55869
scalar World.node[26].appl.middleware.CaService #cam_sent 411
scalar World.node[26].appl.middleware.ExampleService #full_proofs 0
scalar World.node[26].appl.middleware.ExampleService #half_proofs 2
scalar World.node[26].appl.middleware.ExampleService #failed_proofs 0
scalar World.node[26].appl.middleware.ExampleService #loc_proof_send 51
scalar World.node[26].nic.phy80211p busyTime 0.014836328767122
scalar World.node[26].nic.mac1609_4 ReceivedUnicastPackets 0
scalar World.node[26].nic.mac1609_4 ReceivedBroadcasts 9914
scalar World.node[26].nic.mac1609_4 SentPackets 462
scalar World.node[26].nic.mac1609_4 SentAcknowledgements 0
scalar World.node[26].nic.mac1609_4 SNIRLostPackets 3804
scalar World.node[26].nic.mac1609_4 RXTXLostPackets 550
scalar World.node[26].nic.mac1609_4 TotalLostPackets 4354
scalar World.node[26].nic.mac1609_4 DroppedPacketsInMac 0
scalar World.node[26].nic.mac1609_4 TooLittleTime 0
scalar World.node[26].nic.mac1609_4 TimesIntoBackoff 474
scalar World.node[26].nic.mac1609_4 SlotsBackoff 3728
scalar World.node[26].nic.mac1609_4 NumInternalContention 0
scalar World.node[26].nic.mac1609_4 totalBusyTime 2.159462228642
scalar World.node[38].appl.middleware.CaService #cam_sent 320
scalar World.node[38].appl.middleware.ExampleService #full_proofs 0
scalar World.node[38].appl.middleware.ExampleService #half_proofs 1
scalar World.node[38].appl.middleware.ExampleService #failed_proofs 0
scalar World.node[38].appl.middleware.ExampleService #loc_proof_send 48
scalar World.node[38].nic.phy80211p busyTime 0.015918639999998
scalar World.node[38].nic.mac1609_4 ReceivedUnicastPackets 0
scalar World.node[38].nic.mac1609_4 ReceivedBroadcasts 9124
scalar World.node[38].nic.mac1609_4 SentPackets 368
scalar World.node[38].nic.mac1609_4 SentAcknowledgements 0
scalar World.node[38].nic.mac1609_4 SNIRLostPackets 1004
scalar World.node[38].nic.mac1609_4 RXTXLostPackets 389
scalar World.node[38].nic.mac1609_4 TotalLostPackets 1393
scalar World.node[38].nic.mac1609_4 DroppedPacketsInMac 0
scalar World.node[38].nic.mac1609_4 TooLittleTime 0
scalar World.node[38].nic.mac1609_4 TimesIntoBackoff 376
scalar World.node[38].nic.mac1609_4 SlotsBackoff 2860
scalar World.node[38].nic.mac1609_4 NumInternalContention 0
scalar World.node[38].nic.mac1609_4 totalBusyTime 1.581729986202
scalar World.node[63].appl.middleware.CaService #cam_sent 38
scalar World.node[63].appl.middleware.ExampleService #full_proofs 0
scalar World.node[63].appl.middleware.ExampleService #half_proofs 0
scalar World.node[63].appl.middleware.ExampleService #failed_proofs 0
scalar World.node[63].appl.middleware.ExampleService #loc_proof_send 5
scalar World.node[63].nic.phy80211p busyTime 0.015485818181818
scalar World.node[63].nic.mac1609_4 ReceivedUnicastPackets 0
scalar World.node[63].nic.mac1609_4 ReceivedBroadcasts 884
scalar World.node[63].nic.mac1609_4 SentPackets 43
scalar World.node[63].nic.mac1609_4 SentAcknowledgements 0
scalar World.node[63].nic.mac1609_4 SNIRLostPackets 200
scalar World.node[63].nic.mac1609_4 RXTXLostPackets 97
scalar World.node[63].nic.mac1609_4 TotalLostPackets 297
scalar World.node[63].nic.mac1609_4 DroppedPacketsInMac 0
scalar World.node[63].nic.mac1609_4 TooLittleTime 0
scalar World.node[63].nic.mac1609_4 TimesIntoBackoff 44
scalar World.node[63].nic.mac1609_4 SlotsBackoff 324
scalar World.node[63].nic.mac1609_4 NumInternalContention 0
scalar World.node[63].nic.mac1609_4 totalBusyTime 0.168643243076
scalar World.node[54].appl.middleware.CaService #cam_sent 192
scalar World.node[54].appl.middleware.ExampleService #full_proofs 0
scalar World.node[54].appl.middleware.ExampleService #half_proofs 1
scalar World.node[54].appl.middleware.ExampleService #failed_proofs 0
scalar World.node[54].appl.middleware.ExampleService #loc_proof_send 26
scalar World.node[54].nic.phy80211p busyTime 0.016821754385965
scalar World.node[54].nic.mac1609_4 ReceivedUnicastPackets 0
scalar World.node[54].nic.mac1609_4 ReceivedBroadcasts 5238
scalar World.node[54].nic.mac1609_4 SentPackets 218
scalar World.node[54].nic.mac1609_4 SentAcknowledgements 0
scalar World.node[54].nic.mac1609_4 SNIRLostPackets 881
scalar World.node[54].nic.mac1609_4 RXTXLostPackets 221
scalar World.node[54].nic.mac1609_4 TotalLostPackets 1102
scalar World.node[54].nic.mac1609_4 DroppedPacketsInMac 0
scalar World.node[54].nic.mac1609_4 TooLittleTime 0
scalar World.node[54].nic.mac1609_4 TimesIntoBackoff 225
scalar World.node[54].nic.mac1609_4 SlotsBackoff 1694
scalar World.node[54].nic.mac1609_4 NumInternalContention 0
scalar World.node[54].nic.mac1609_4 totalBusyTime 0.944930902235
scalar World.node[20].appl.middleware.CaService #cam_sent 501
scalar World.node[20].appl.middleware.ExampleService #full_proofs 0
scalar World.node[20].appl.middleware.ExampleService #half_proofs 3
scalar World.node[20].appl.middleware.ExampleService #failed_proofs 0
scalar World.node[20].appl.middleware.ExampleService #loc_proof_send 91
scalar World.node[20].nic.phy80211p busyTime 0.014132142131979
scalar World.node[20].nic.mac1609_4 ReceivedUnicastPackets 0
scalar World.node[20].nic.mac1609_4 ReceivedBroadcasts 15663
scalar World.node[20].nic.mac1609_4 SentPackets 592
scalar World.node[20].nic.mac1609_4 SentAcknowledgements 0
scalar World.node[20].nic.mac1609_4 SNIRLostPackets 1992
scalar World.node[20].nic.mac1609_4 RXTXLostPackets 773
scalar World.node[20].nic.mac1609_4 TotalLostPackets 2765
scalar World.node[20].nic.mac1609_4 DroppedPacketsInMac 0
scalar World.node[20].nic.mac1609_4 TooLittleTime 0
scalar World.node[20].nic.mac1609_4 TimesIntoBackoff 604
scalar World.node[20].nic.mac1609_4 SlotsBackoff 4547
scalar World.node[20].nic.mac1609_4 NumInternalContention 0
scalar World.node[20].nic.mac1609_4 totalBusyTime 2.760011096236
scalar World.node[4].appl.middleware.CaService #cam_sent 722
scalar World.node[4].appl.middleware.ExampleService #full_proofs 0
scalar World.node[4].appl.middleware.ExampleService #half_proofs 5
scalar World.node[4].appl.middleware.ExampleService #failed_proofs 0
scalar World.node[4].appl.middleware.ExampleService #loc_proof_send 82
scalar World.node[4].nic.phy80211p busyTime 0.012130759689922
scalar World.node[4].nic.mac1609_4 ReceivedUnicastPackets 0
scalar World.node[4].nic.mac1609_4 ReceivedBroadcasts 14560
scalar World.node[4].nic.mac1609_4 SentPackets 804
scalar World.node[4].nic.mac1609_4 SentAcknowledgements 0
scalar World.node[4].nic.mac1609_4 SNIRLostPackets 5332
scalar World.node[4].nic.mac1609_4 RXTXLostPackets 614
scalar World.node[4].nic.mac1609_4 TotalLostPackets 5946
scalar World.node[4].nic.mac1609_4 DroppedPacketsInMac 0
scalar World.node[4].nic.mac1609_4 TooLittleTime 0
scalar World.node[4].nic.mac1609_4 TimesIntoBackoff 817
scalar World.node[4].nic.mac1609_4 SlotsBackoff 6118
scalar World.node[4].nic.mac1609_4 NumInternalContention 0
scalar World.node[4].nic.mac1609_4 totalBusyTime 3.116653107648
scalar World.node[36].appl.middleware.CaService #cam_sent 314
scalar World.node[36].appl.middleware.ExampleService #full_proofs 0
scalar World.node[36].appl.middleware.ExampleService #half_proofs 2
scalar World.node[36].appl.middleware.ExampleService #failed_proofs 0
scalar World.node[36].appl.middleware.ExampleService #loc_proof_send 64
scalar World.node[36].nic.phy80211p busyTime 0.01586849230769
scalar World.node[36].nic.mac1609_4 ReceivedUnicastPackets 0
scalar World.node[36].nic.mac1609_4 ReceivedBroadcasts 11282
scalar World.node[36].nic.mac1609_4 SentPackets 378
scalar World.node[36].nic.mac1609_4 SentAcknowledgements 0
scalar World.node[36].nic.mac1609_4 SNIRLostPackets 1821
scalar World.node[36].nic.mac1609_4 RXTXLostPackets 757
scalar World.node[36].nic.mac1609_4 TotalLostPackets 2578
scalar World.node[36].nic.mac1609_4 DroppedPacketsInMac 0
scalar World.node[36].nic.mac1609_4 TooLittleTime 0
scalar World.node[36].nic.mac1609_4 TimesIntoBackoff 388
scalar World.node[36].nic.mac1609_4 SlotsBackoff 2843
scalar World.node[36].nic.mac1609_4 NumInternalContention 0
scalar World.node[36].nic.mac1609_4 totalBusyTime 2.042115343994
scalar World.node[25].appl.middleware.CaService #cam_sent 507
scalar World.node[25].appl.middleware.ExampleService #full_proofs 0
scalar World.node[25].appl.middleware.ExampleService #half_proofs 3
scalar World.node[25].appl.middleware.ExampleService #failed_proofs 0
scalar World.node[25].appl.middleware.ExampleService #loc_proof_send 80
scalar World.node[25].nic.phy80211p busyTime 0.015072499999999
scalar World.node[25].nic.mac1609_4 ReceivedUnicastPackets 0
scalar World.node[25].nic.mac1609_4 ReceivedBroadcasts 14803
scalar World.node[25].nic.mac1609_4 SentPackets 587
scalar World.node[25].nic.mac1609_4 SentAcknowledgements 0
scalar World.node[25].nic.mac1609_4 SNIRLostPackets 2020
scalar World.node[25].nic.mac1609_4 RXTXLostPackets 757
scalar World.node[25].nic.mac1609_4 TotalLostPackets 2777
scalar World.node[25].nic.mac1609_4 DroppedPacketsInMac 0
scalar World.node[25].nic.mac1609_4 TooLittleTime 0
scalar World.node[25].nic.mac1609_4 TimesIntoBackoff 595
scalar World.node[25].nic.mac1609_4 SlotsBackoff 4542
scalar World.node[25].nic.mac1609_4 NumInternalContention 0
scalar World.node[25].nic.mac1609_4 totalBusyTime 2.634411733907
scalar World.node[11].appl.middleware.CaService #cam_sent 663
scalar World.node[11].appl.middleware.ExampleService #full_proofs 0
scalar World.node[11].appl.middleware.ExampleService #half_proofs 4
scalar World.node[11].appl.middleware.ExampleService #failed_proofs 0
scalar World.node[11].appl.middleware.ExampleService #loc_proof_send 92
scalar World.node[11].nic.phy80211p busyTime 0.013072
scalar World.node[11].nic.mac1609_4 ReceivedUnicastPackets 0
scalar World.node[11].nic.mac1609_4 ReceivedBroadcasts 16215
scalar World.node[11].nic.mac1609_4 SentPackets 755
scalar World.node[11].nic.mac1609_4 SentAcknowledgements 0
scalar World.node[11].nic.mac1609_4 SNIRLostPackets 3680
scalar World.node[11].nic.mac1609_4 RXTXLostPackets 1006
scalar World.node[11].nic.mac1609_4 TotalLostPackets 4686
scalar World.node[11].nic.mac1609_4 DroppedPacketsInMac 0
scalar World.node[11].nic.mac1609_4 TooLittleTime 0
scalar World.node[11].nic.mac1609_4 TimesIntoBackoff 772
scalar World.node[11].nic.mac1609_4 SlotsBackoff 5913
scalar World.node[11].nic.mac1609_4 NumInternalContention 0
scalar World.node[11].nic.mac1609_4 totalBusyTime 3.161590843742
scalar World.node[18].appl.middleware.CaService #cam_sent 538
scalar World.node[18].appl.middleware.ExampleService #full_proofs 0
scalar World.node[18].appl.middleware.ExampleService #half_proofs 3
scalar World.node[18].appl.middleware.ExampleService #failed_proofs 0
scalar World.node[18].appl.middleware.ExampleService #loc_proof_send 95
scalar World.node[18].nic.phy80211p busyTime 0.014106654028436
scalar World.node[18].nic.mac1609_4 ReceivedUnicastPackets 0
scalar World.node[18].nic.mac1609_4 ReceivedBroadcasts 16534
scalar World.node[18].nic.mac1609_4 SentPackets 633
scalar World.node[18].nic.mac1609_4 SentAcknowledgements 0
scalar World.node[18].nic.mac1609_4 SNIRLostPackets 2284
scalar World.node[18].nic.mac1609_4 RXTXLostPackets 922
scalar World.node[18].nic.mac1609_4 TotalLostPackets 3206
scalar World.node[18].nic.mac1609_4 DroppedPacketsInMac 0
scalar World.node[18].nic.mac1609_4 TooLittleTime 0
scalar World.node[18].nic.mac1609_4 TimesIntoBackoff 643
scalar World.node[18].nic.mac1609_4 SlotsBackoff 4834
scalar World.node[18].nic.mac1609_4 NumInternalContention 0
scalar World.node[18].nic.mac1609_4 totalBusyTime 2.960961965452
scalar World.node[28].appl.middleware.CaService #cam_sent 419
scalar World.node[28].appl.middleware.ExampleService #full_proofs 0
scalar World.node[28].appl.middleware.ExampleService #half_proofs 3
scalar World.node[28].appl.middleware.ExampleService #failed_proofs 0
scalar World.node[28].appl.middleware.ExampleService #loc_proof_send 63
scalar World.node[28].nic.phy80211p busyTime 0.015655770114942
scalar World.node[28].nic.mac1609_4 ReceivedUnicastPackets 0
scalar World.node[28].nic.mac1609_4 ReceivedBroadcasts 11635
scalar World.node[28].nic.mac1609_4 SentPackets 482
scalar World.node[28].nic.mac1609_4 SentAcknowledgements 0
scalar World.node[28].nic.mac1609_4 SNIRLostPackets 5716
scalar World.node[28].nic.mac1609_4 RXTXLostPackets 709
scalar World.node[28].nic.mac1609_4 TotalLostPackets 6425
scalar World.node[28].nic.mac1609_4 DroppedPacketsInMac 0
scalar World.node[28].nic.mac1609_4 TooLittleTime 0
scalar World.node[28].nic.mac1609_4 TimesIntoBackoff 514
scalar World.node[28].nic.mac1609_4 SlotsBackoff 3730
scalar World.node[28].nic.mac1609_4 NumInternalContention 0
scalar World.node[28].nic.mac1609_4 totalBusyTime 2.674517516137
scalar World.node[56].appl.middleware.CaService #cam_sent 169
scalar World.node[56].appl.middleware.ExampleService #full_proofs 0
scalar World.node[56].appl.middleware.ExampleService #half_proofs 1
scalar World.node[56].appl.middleware.ExampleService #failed_proofs 0
scalar World.node[56].appl.middleware.ExampleService #loc_proof_send 38
scalar World.node[56].nic.phy80211p busyTime 0.017549555555554
scalar World.node[56].nic.mac1609_4 ReceivedUnicastPackets 0
scalar World.node[56].nic.mac1609_4 ReceivedBroadcasts 7367
scalar World.node[56].nic.mac1609_4 SentPackets 207
scalar World.node[56].nic.mac1609_4 SentAcknowledgements 0
scalar World.node[56].nic.mac1609_4 SNIRLostPackets 666
scalar World.node[56].nic.mac1609_4 RXTXLostPackets 473
scalar World.node[56].nic.mac1609_4 TotalLostPackets 1139
scalar World.node[56].nic.mac1609_4 DroppedPacketsInMac 0
scalar World.node[56].nic.mac1609_4 TooLittleTime 0
scalar World.node[56].nic.mac1609_4 TimesIntoBackoff 215
scalar World.node[56].nic.mac1609_4 SlotsBackoff 1650
scalar World.node[56].nic.mac1609_4 NumInternalContention 0
scalar World.node[56].nic.mac1609_4 totalBusyTime 1.244871486178
scalar World.node[5].appl.middleware.CaService #cam_sent 866
scalar World.node[5].appl.middleware.ExampleService #full_proofs 0
scalar World.node[5].appl.middleware.ExampleService #half_proofs 5
scalar World.node[5].appl.middleware.ExampleService #failed_proofs 0
scalar World.node[5].appl.middleware.ExampleService #loc_proof_send 112
scalar World.node[5].nic.phy80211p busyTime 0.012840289855073
scalar World.node[5].nic.mac1609_4 ReceivedUnicastPackets 0
scalar World.node[5].nic.mac1609_4 ReceivedBroadcasts 19605
scalar World.node[5].nic.mac1609_4 SentPackets 978
scalar World.node[5].nic.mac1609_4 SentAcknowledgements 0
scalar World.node[5].nic.mac1609_4 SNIRLostPackets 2915
scalar World.node[5].nic.mac1609_4 RXTXLostPackets 807
scalar World.node[5].nic.mac1609_4 TotalLostPackets 3722
scalar World.node[5].nic.mac1609_4 DroppedPacketsInMac 0
scalar World.node[5].nic.mac1609_4 TooLittleTime 0
scalar World.node[5].nic.mac1609_4 TimesIntoBackoff 992
scalar World.node[5].nic.mac1609_4 SlotsBackoff 7349
scalar World.node[5].nic.mac1609_4 NumInternalContention 0
scalar World.node[5].nic.mac1609_4 totalBusyTime 3.542371375997
scalar World.node[68].appl.middleware.CaService #cam_sent 92
scalar World.node[68].appl.middleware.ExampleService #full_proofs 0
scalar World.node[68].appl.middleware.ExampleService #half_proofs 0
scalar World.node[68].appl.middleware.ExampleService #failed_proofs 0
scalar World.node[68].appl.middleware.ExampleService #loc_proof_send 9
scalar World.node[68].nic.phy80211p busyTime 0.019662814814815
scalar World.node[68].nic.mac1609_4 ReceivedUnicastPackets 0
scalar World.node[68].nic.mac1609_4 ReceivedBroadcasts 1399
scalar World.node[68].nic.mac1609_4 SentPackets 101
scalar World.node[68].nic.mac1609_4 SentAcknowledgements 0
scalar World.node[68].nic.mac1609_4 SNIRLostPackets 2057
scalar World.node[68].nic.mac1609_4 RXTXLostPackets 60
scalar World.node[68].nic.mac1609_4 TotalLostPackets 2117
scalar World.node[68].nic.mac1609_4 DroppedPacketsInMac 0
scalar World.node[68].nic.mac1609_4 TooLittleTime 0
scalar World.node[68].nic.mac1609_4 TimesIntoBackoff 102
scalar World.node[68].nic.mac1609_4 SlotsBackoff 713
scalar World.node[68].nic.mac1609_4 NumInternalContention 0
scalar World.node[68].nic.mac1609_4 totalBusyTime 0.506941
scalar World.node[39].appl.middleware.CaService #cam_sent 424
scalar World.node[39].appl.middleware.ExampleService #full_proofs 0
scalar World.node[39].appl.middleware.ExampleService #half_proofs 2
scalar World.node[39].appl.middleware.ExampleService #failed_proofs 0
scalar World.node[39].appl.middleware.ExampleService #loc_proof_send 73
scalar World.node[39].nic.phy80211p busyTime 0.016603220125786
scalar World.node[39].nic.mac1609_4 ReceivedUnicastPackets 0
scalar World.node[39].nic.mac1609_4 ReceivedBroadcasts 13988
scalar World.node[39].nic.mac1609_4 SentPackets 497
scalar World.node[39].nic.mac1609_4 SentAcknowledgements 0
scalar World.node[39].nic.mac1609_4 SNIRLostPackets 2815
scalar World.node[39].nic.mac1609_4 RXTXLostPackets 744
scalar World.node[39].nic.mac1609_4 TotalLostPackets 3559
scalar World.node[39].nic.mac1609_4 DroppedPacketsInMac 0
scalar World.node[39].nic.mac1609_4 TooLittleTime 0
scalar World.node[39].nic.mac1609_4 TimesIntoBackoff 510
scalar World.node[39].nic.mac1609_4 SlotsBackoff 3904
scalar World.node[39].nic.mac1609_4 NumInternalContention 0
scalar World.node[39].nic.mac1609_4 totalBusyTime 2.59232983017
scalar World.node[67].appl.middleware.CaService #cam_sent 172
scalar World.node[67].appl.middleware.ExampleService #full_proofs 0
scalar World.node[67].appl.middleware.ExampleService #half_proofs 1
scalar World.node[67].appl.middleware.ExampleService #failed_proofs 0
scalar World.node[67].appl.middleware.ExampleService #loc_proof_send 20
scalar World.node[67].nic.phy80211p busyTime 0.017750745098039
scalar World.node[67].nic.mac1609_4 ReceivedUnicastPackets 0
scalar World.node[67].nic.mac1609_4 ReceivedBroadcasts 3503
scalar World.node[67].nic.mac1609_4 SentPackets 192
scalar World.node[67].nic.mac1609_4 SentAcknowledgements 0
scalar World.node[67].nic.mac1609_4 SNIRLostPackets 2304
scalar World.node[67].nic.mac1609_4 RXTXLostPackets 308
scalar World.node[67].nic.mac1609_4 TotalLostPackets 2612
scalar World.node[67].nic.mac1609_4 DroppedPacketsInMac 0
scalar World.node[67].nic.mac1609_4 TooLittleTime 0
scalar World.node[67].nic.mac1609_4 TimesIntoBackoff 201
scalar World.node[67].nic.mac1609_4 SlotsBackoff 1541
scalar World.node[67].nic.mac1609_4 NumInternalContention 0
scalar World.node[67].nic.mac1609_4 totalBusyTime 0.893024
scalar World.node[57].appl.middleware.CaService #cam_sent 236
scalar World.node[57].appl.middleware.ExampleService #full_proofs 0
scalar World.node[57].appl.middleware.ExampleService #half_proofs 2
scalar World.node[57].appl.middleware.ExampleService #failed_proofs 0
scalar World.node[57].appl.middleware.ExampleService #loc_proof_send 57
scalar World.node[57].nic.phy80211p busyTime 0.017647481481479
scalar World.node[57].nic.mac1609_4 ReceivedUnicastPackets 0
scalar World.node[57].nic.mac1609_4 ReceivedBroadcasts 10107
scalar World.node[57].nic.mac1609_4 SentPackets 293
scalar World.node[57].nic.mac1609_4 SentAcknowledgements 0
scalar World.node[57].nic.mac1609_4 SNIRLostPackets 1987
scalar World.node[57].nic.mac1609_4 RXTXLostPackets 770
scalar World.node[57].nic.mac1609_4 TotalLostPackets 2757
scalar World.node[57].nic.mac1609_4 DroppedPacketsInMac 0
scalar World.node[57].nic.mac1609_4 TooLittleTime 0
scalar World.node[57].nic.mac1609_4 TimesIntoBackoff 431
scalar World.node[57].nic.mac1609_4 SlotsBackoff 3215
scalar World.node[57].nic.mac1609_4 NumInternalContention 0
scalar World.node[57].nic.mac1609_4 totalBusyTime 1.876607243158
scalar World.node[32].appl.middleware.CaService #cam_sent 926298714
scalar World.node[32].appl.middleware.ExampleService #full_proofs 0
scalar World.node[32].appl.middleware.ExampleService #half_proofs 3
scalar World.node[32].appl.middleware.ExampleService #failed_proofs 0
scalar World.node[32].appl.middleware.ExampleService #loc_proof_send 99
scalar World.node[32].nic.phy80211p busyTime 0.01643374407583
scalar World.node[32].nic.mac1609_4 ReceivedUnicastPackets 0
scalar World.node[32].nic.mac1609_4 ReceivedBroadcasts 18093
scalar World.node[32].nic.mac1609_4 SentPackets 701
scalar World.node[32].nic.mac1609_4 SentAcknowledgements 0
scalar World.node[32].nic.mac1609_4 SNIRLostPackets 4009
scalar World.node[32].nic.mac1609_4 RXTXLostPackets 1024
scalar World.node[32].nic.mac1609_4 TotalLostPackets 5033
scalar World.node[32].nic.mac1609_4 DroppedPacketsInMac 0
scalar World.node[32].nic.mac1609_4 TooLittleTime 0
scalar World.node[32].nic.mac1609_4 TimesIntoBackoff 717
scalar World.node[32].nic.mac1609_4 SlotsBackoff 5471
scalar World.node[32].nic.mac1609_4 NumInternalContention 0
scalar World.node[32].nic.mac1609_4 totalBusyTime 3.420678906831
scalar World.node[79].appl.middleware.CaService #cam_sent 88
scalar World.node[79].appl.middleware.ExampleService #full_proofs 0
scalar World.node[79].appl.middleware.ExampleService #half_proofs 1
scalar World.node[79].appl.middleware.ExampleService #failed_proofs 0
scalar World.node[79].appl.middleware.ExampleService #loc_proof_send 16
scalar World.node[79].nic.phy80211p busyTime 0.020189846153846
scalar World.node[79].nic.mac1609_4 ReceivedUnicastPackets 0
scalar World.node[79].nic.mac1609_4 ReceivedBroadcasts 2341
scalar World.node[79].nic.mac1609_4 SentPackets 104
scalar World.node[79].nic.mac1609_4 SentAcknowledgements 0
scalar World.node[79].nic.mac1609_4 SNIRLostPackets 1087
scalar World.node[79].nic.mac1609_4 RXTXLostPackets 139
scalar World.node[79].nic.mac1609_4 TotalLostPackets 1226
scalar World.node[79].nic.mac1609_4 DroppedPacketsInMac 0
scalar World.node[79].nic.mac1609_4 TooLittleTime 0
scalar World.node[79].nic.mac1609_4 TimesIntoBackoff 104
scalar World.node[79].nic.mac1609_4 SlotsBackoff 814
scalar World.node[79].nic.mac1609_4 NumInternalContention 0
scalar World.node[79].nic.mac1609_4 totalBusyTime 0.497960044565
scalar World.node[23].appl.middleware.CaService #cam_sent 583
scalar World.node[23].appl.middleware.ExampleService #full_proofs 0
scalar World.node[23].appl.middleware.ExampleService #half_proofs 4
scalar World.node[23].appl.middleware.ExampleService #failed_proofs 0
scalar World.node[23].appl.middleware.ExampleService #loc_proof_send 114
scalar World.node[23].nic.phy80211p busyTime 0.015991384615385
scalar World.node[23].nic.mac1609_4 ReceivedUnicastPackets 0
scalar World.node[23].nic.mac1609_4 ReceivedBroadcasts 20586
scalar World.node[23].nic.mac1609_4 SentPackets 697
scalar World.node[23].nic.mac1609_4 SentAcknowledgements 0
scalar World.node[23].nic.mac1609_4 SNIRLostPackets 4565
scalar World.node[23].nic.mac1609_4 RXTXLostPackets 1183
scalar World.node[23].nic.mac1609_4 TotalLostPackets 5748
scalar World.node[23].nic.mac1609_4 DroppedPacketsInMac 0
scalar World.node[23].nic.mac1609_4 TooLittleTime 0
scalar World.node[23].nic.mac1609_4 TimesIntoBackoff 709
scalar World.node[23].nic.mac1609_4 SlotsBackoff 5235
scalar World.node[23].nic.mac1609_4 NumInternalContention 0
scalar World.node[23].nic.mac1609_4 totalBusyTime 3.866500364447
scalar World.node[52].appl.middleware.CaService #cam_sent 461
scalar World.node[52].appl.middleware.ExampleService #full_proofs 0
scalar World.node[52].appl.middleware.ExampleService #half_proofs 3
scalar World.node[52].appl.middleware.ExampleService #failed_proofs 0
scalar World.node[52].appl.middleware.ExampleService #loc_proof_send 80
scalar World.node[52].nic.phy80211p busyTime 0.018107972027971
scalar World.node[52].nic.mac1609_4 ReceivedUnicastPackets 0
scalar World.node[52].nic.mac1609_4 ReceivedBroadcasts 13042
scalar World.node[52].nic.mac1609_4 SentPackets 541
scalar World.node[52].nic.mac1609_4 SentAcknowledgements 0
scalar World.node[52].nic.mac1609_4 SNIRLostPackets 3586
scalar World.node[52].nic.mac1609_4 RXTXLostPackets 782
scalar World.node[52].nic.mac1609_4 TotalLostPackets 4368
scalar World.node[52].nic.mac1609_4 DroppedPacketsInMac 0
scalar World.node[52].nic.mac1609_4 TooLittleTime 0
scalar World.node[52].nic.mac1609_4 TimesIntoBackoff 550
scalar World.node[52].nic.mac1609_4 SlotsBackoff 4033
scalar World.node[52].nic.mac1609_4 NumInternalContention 0
scalar World.node[52].nic.mac1609_4 totalBusyTime 2.518015600261
scalar World.node[37].appl.middleware.CaService #cam_sent 564
scalar World.node[37].appl.middleware.ExampleService #full_proofs 0
scalar World.node[37].appl.middleware.ExampleService #half_proofs 4
scalar World.node[37].appl.middleware.ExampleService #failed_proofs 0
scalar World.node[37].appl.middleware.ExampleService #loc_proof_send 89
scalar World.node[37].nic.phy80211p busyTime 0.01716704477612
scalar World.node[37].nic.mac1609_4 ReceivedUnicastPackets 0
scalar World.node[37].nic.mac1609_4 ReceivedBroadcasts 15700
scalar World.node[37].nic.mac1609_4 SentPackets 653
scalar World.node[37].nic.mac1609_4 SentAcknowledgements 0
scalar World.node[37].nic.mac1609_4 SNIRLostPackets 6377
scalar World.node[37].nic.mac1609_4 RXTXLostPackets 999
scalar World.node[37].nic.mac1609_4 TotalLostPackets 7376
scalar World.node[37].nic.mac1609_4 DroppedPacketsInMac 0
scalar World.node[37].nic.mac1609_4 TooLittleTime 0
scalar World.node[37].nic.mac1609_4 TimesIntoBackoff 668
scalar World.node[37].nic.mac1609_4 SlotsBackoff 5071
scalar World.node[37].nic.mac1609_4 NumInternalContention 0
scalar World.node[37].nic.mac1609_4 totalBusyTime 3.362894073177
scalar World.node[43].appl.middleware.CaService #cam_sent 490
scalar World.node[43].appl.middleware.ExampleService #full_proofs 0
scalar World.node[43].appl.middleware.ExampleService #half_proofs 3
scalar World.node[43].appl.middleware.ExampleService #failed_proofs 0
scalar World.node[43].appl.middleware.ExampleService #loc_proof_send 84
scalar World.node[43].nic.phy80211p busyTime 0.017380773480663
scalar World.node[43].nic.mac1609_4 ReceivedUnicastPackets 0
scalar World.node[43].nic.mac1609_4 ReceivedBroadcasts 14138
scalar World.node[43].nic.mac1609_4 SentPackets 574
scalar World.node[43].nic.mac1609_4 SentAcknowledgements 0
scalar World.node[43].nic.mac1609_4 SNIRLostPackets 5932
scalar World.node[43].nic.mac1609_4 RXTXLostPackets 1134
scalar World.node[43].nic.mac1609_4 TotalLostPackets 7066
scalar World.node[43].nic.mac1609_4 DroppedPacketsInMac 0
scalar World.node[43].nic.mac1609_4 TooLittleTime 0
scalar World.node[43].nic.mac1609_4 TimesIntoBackoff 594
scalar World.node[43].nic.mac1609_4 SlotsBackoff 4498
scalar World.node[43].nic.mac1609_4 NumInternalContention 0
scalar World.node[43].nic.mac1609_4 totalBusyTime 3.09561769898
scalar World.node[58].appl.middleware.CaService #cam_sent 354
scalar World.node[58].appl.middleware.ExampleService #full_proofs 0
scalar World.node[58].appl.middleware.ExampleService #half_proofs 2
scalar World.node[58].appl.middleware.ExampleService #failed_proofs 0
scalar World.node[58].appl.middleware.ExampleService #loc_proof_send 54
scalar World.node[58].nic.phy80211p busyTime 0.018128615384614
scalar World.node[58].nic.mac1609_4 ReceivedUnicastPackets 0
scalar World.node[58].nic.mac1609_4 ReceivedBroadcasts 9952
scalar World.node[58].nic.mac1609_4 SentPackets 408
scalar World.node[58].nic.mac1609_4 SentAcknowledgements 0
scalar World.node[58].nic.mac1609_4 SNIRLostPackets 3647
scalar World.node[58].nic.mac1609_4 RXTXLostPackets 653
scalar World.node[58].nic.mac1609_4 TotalLostPackets 4300
scalar World.node[58].nic.mac1609_4 DroppedPacketsInMac 0
scalar World.node[58].nic.mac1609_4 TooLittleTime 0
scalar World.node[58].nic.mac1609_4 TimesIntoBackoff 410
scalar World.node[58].nic.mac1609_4 SlotsBackoff 3088
scalar World.node[58].nic.mac1609_4 NumInternalContention 0
scalar World.node[58].nic.mac1609_4 totalBusyTime 2.060130667297
scalar World.node[17].appl.middleware.CaService #cam_sent 773
scalar World.node[17].appl.middleware.ExampleService #full_proofs 0
scalar World.node[17].appl.middleware.ExampleService #half_proofs 5
scalar World.node[17].appl.middleware.ExampleService #failed_proofs 0
scalar World.node[17].appl.middleware.ExampleService #loc_proof_send 136
scalar World.node[17].nic.phy80211p busyTime 0.014934567567571
scalar World.node[17].nic.mac1609_4 ReceivedUnicastPackets 0
scalar World.node[17].nic.mac1609_4 ReceivedBroadcasts 25003
scalar World.node[17].nic.mac1609_4 SentPackets 909
scalar World.node[17].nic.mac1609_4 SentAcknowledgements 0
scalar World.node[17].nic.mac1609_4 SNIRLostPackets 3015
scalar World.node[17].nic.mac1609_4 RXTXLostPackets 1722
scalar World.node[17].nic.mac1609_4 TotalLostPackets 4737
scalar World.node[17].nic.mac1609_4 DroppedPacketsInMac 0
scalar World.node[17].nic.mac1609_4 TooLittleTime 0
scalar World.node[17].nic.mac1609_4 TimesIntoBackoff 927
scalar World.node[17].nic.mac1609_4 SlotsBackoff 6861
scalar World.node[17].nic.mac1609_4 NumInternalContention 0
scalar World.node[17].nic.mac1609_4 totalBusyTime 4.404784024078
scalar World.node[59].appl.middleware.CaService #cam_sent 342
scalar World.node[59].appl.middleware.ExampleService #full_proofs 0
scalar World.node[59].appl.middleware.ExampleService #half_proofs 2
scalar World.node[59].appl.middleware.ExampleService #failed_proofs 0
scalar World.node[59].appl.middleware.ExampleService #loc_proof_send 67
scalar World.node[59].nic.phy80211p busyTime 0.018139130434781
scalar World.node[59].nic.mac1609_4 ReceivedUnicastPackets 0
scalar World.node[59].nic.mac1609_4 ReceivedBroadcasts 11778
scalar World.node[59].nic.mac1609_4 SentPackets 409
scalar World.node[59].nic.mac1609_4 SentAcknowledgements 0
scalar World.node[59].nic.mac1609_4 SNIRLostPackets 1610
scalar World.node[59].nic.mac1609_4 RXTXLostPackets 692
scalar World.node[59].nic.mac1609_4 TotalLostPackets 2302
scalar World.node[59].nic.mac1609_4 DroppedPacketsInMac 0
scalar World.node[59].nic.mac1609_4 TooLittleTime 0
scalar World.node[59].nic.mac1609_4 TimesIntoBackoff 416
scalar World.node[59].nic.mac1609_4 SlotsBackoff 3053
scalar World.node[59].nic.mac1609_4 NumInternalContention 0
scalar World.node[59].nic.mac1609_4 totalBusyTime 2.024804617616
scalar World.node[47].appl.middleware.CaService #cam_sent 462
scalar World.node[47].appl.middleware.ExampleService #full_proofs 0
scalar World.node[47].appl.middleware.ExampleService #half_proofs 2
scalar World.node[47].appl.middleware.ExampleService #failed_proofs 0
scalar World.node[47].appl.middleware.ExampleService #loc_proof_send 96
scalar World.node[47].nic.phy80211p busyTime 0.01767361849711
scalar World.node[47].nic.mac1609_4 ReceivedUnicastPackets 0
scalar World.node[47].nic.mac1609_4 ReceivedBroadcasts 16423
scalar World.node[47].nic.mac1609_4 SentPackets 558
scalar World.node[47].nic.mac1609_4 SentAcknowledgements 0
scalar World.node[47].nic.mac1609_4 SNIRLostPackets 3050
scalar World.node[47].nic.mac1609_4 RXTXLostPackets 1187
scalar World.node[47].nic.mac1609_4 TotalLostPackets 4237
scalar World.node[47].nic.mac1609_4 DroppedPacketsInMac 0
scalar World.node[47].nic.mac1609_4 TooLittleTime 0
scalar World.node[47].nic.mac1609_4 TimesIntoBackoff 570
scalar World.node[47].nic.mac1609_4 SlotsBackoff 4180
scalar World.node[47].nic.mac1609_4 NumInternalContention 0
scalar World.node[47].nic.mac1609_4 totalBusyTime 3.007719322508
scalar World.node[49].appl.middleware.CaService #cam_sent 506
scalar World.node[49].appl.middleware.ExampleService #full_proofs 0
scalar World.node[49].appl.middleware.ExampleService #half_proofs 2
scalar World.node[49].appl.middleware.ExampleService #failed_proofs 0
scalar World.node[49].appl.middleware.ExampleService #loc_proof_send 97
scalar World.node[49].nic.phy80211p busyTime 0.017886958579882
scalar World.node[49].nic.mac1609_4 ReceivedUnicastPackets 0
scalar World.node[49].nic.mac1609_4 ReceivedBroadcasts 16561
scalar World.node[49].nic.mac1609_4 SentPackets 603
scalar World.node[49].nic.mac1609_4 SentAcknowledgements 0
scalar World.node[49].nic.mac1609_4 SNIRLostPackets 2784
scalar World.node[49].nic.mac1609_4 RXTXLostPackets 959
scalar World.node[49].nic.mac1609_4 TotalLostPackets 3743
scalar World.node[49].nic.mac1609_4 DroppedPacketsInMac 0
scalar World.node[49].nic.mac1609_4 TooLittleTime 0
scalar World.node[49].nic.mac1609_4 TimesIntoBackoff 616
scalar World.node[49].nic.mac1609_4 SlotsBackoff 4676
scalar World.node[49].nic.mac1609_4 NumInternalContention 0
scalar World.node[49].nic.mac1609_4 totalBusyTime 2.955702287869
scalar World.node[55].appl.middleware.CaService #cam_sent 408
scalar World.node[55].appl.middleware.ExampleService #full_proofs 0
scalar World.node[55].appl.middleware.ExampleService #half_proofs 2
scalar World.node[55].appl.middleware.ExampleService #failed_proofs 0
scalar World.node[55].appl.middleware.ExampleService #loc_proof_send 84
scalar World.node[55].nic.phy80211p busyTime 0.018307733333333
scalar World.node[55].nic.mac1609_4 ReceivedUnicastPackets 0
scalar World.node[55].nic.mac1609_4 ReceivedBroadcasts 15606
scalar World.node[55].nic.mac1609_4 SentPackets 492
scalar World.node[55].nic.mac1609_4 SentAcknowledgements 0
scalar World.node[55].nic.mac1609_4 SNIRLostPackets 1947
scalar World.node[55].nic.mac1609_4 RXTXLostPackets 927
scalar World.node[55].nic.mac1609_4 TotalLostPackets 2874
scalar World.node[55].nic.mac1609_4 DroppedPacketsInMac 0
scalar World.node[55].nic.mac1609_4 TooLittleTime 0
scalar World.node[55].nic.mac1609_4 TimesIntoBackoff 500
scalar World.node[55].nic.mac1609_4 SlotsBackoff 3703
scalar World.node[55].nic.mac1609_4 NumInternalContention 0
scalar World.node[55].nic.mac1609_4 totalBusyTime 2.673503398225
scalar World.node[41].appl.middleware.CaService #cam_sent 591
scalar World.node[41].appl.middleware.ExampleService #full_proofs 0
scalar World.node[41].appl.middleware.ExampleService #half_proofs 3
scalar World.node[41].appl.middleware.ExampleService #failed_proofs 0
scalar World.node[41].appl.middleware.ExampleService #loc_proof_send 99
scalar World.node[41].nic.phy80211p busyTime 0.017652769953052
scalar World.node[41].nic.mac1609_4 ReceivedUnicastPackets 0
scalar World.node[41].nic.mac1609_4 ReceivedBroadcasts 17760
scalar World.node[41].nic.mac1609_4 SentPackets 690
scalar World.node[41].nic.mac1609_4 SentAcknowledgements 0
scalar World.node[41].nic.mac1609_4 SNIRLostPackets 6291
scalar World.node[41].nic.mac1609_4 RXTXLostPackets 1084
scalar World.node[41].nic.mac1609_4 TotalLostPackets 7375
scalar World.node[41].nic.mac1609_4 DroppedPacketsInMac 0
scalar World.node[41].nic.mac1609_4 TooLittleTime 0
scalar World.node[41].nic.mac1609_4 TimesIntoBackoff 850
scalar World.node[41].nic.mac1609_4 SlotsBackoff 6280
scalar World.node[41].nic.mac1609_4 NumInternalContention 0
scalar World.node[41].nic.mac1609_4 totalBusyTime 3.665646031272
scalar World.node[34].appl.middleware.CaService #cam_sent 685
scalar World.node[34].appl.middleware.ExampleService #full_proofs 0
scalar World.node[34].appl.middleware.ExampleService #half_proofs 4
scalar World.node[34].appl.middleware.ExampleService #failed_proofs 0
scalar World.node[34].appl.middleware.ExampleService #loc_proof_send 122
scalar World.node[34].nic.phy80211p busyTime 0.017241774193551
scalar World.node[34].nic.mac1609_4 ReceivedUnicastPackets 0
scalar World.node[34].nic.mac1609_4 ReceivedBroadcasts 22473
scalar World.node[34].nic.mac1609_4 SentPackets 807
scalar World.node[34].nic.mac1609_4 SentAcknowledgements 0
scalar World.node[34].nic.mac1609_4 SNIRLostPackets 4828
scalar World.node[34].nic.mac1609_4 RXTXLostPackets 1414
scalar World.node[34].nic.mac1609_4 TotalLostPackets 6242
scalar World.node[34].nic.mac1609_4 DroppedPacketsInMac 0
scalar World.node[34].nic.mac1609_4 TooLittleTime 0
scalar World.node[34].nic.mac1609_4 TimesIntoBackoff 828
scalar World.node[34].nic.mac1609_4 SlotsBackoff 6189
scalar World.node[34].nic.mac1609_4 NumInternalContention 0
scalar World.node[34].nic.mac1609_4 totalBusyTime 4.197611269437
scalar World.node[60].appl.middleware.CaService #cam_sent 337
scalar World.node[60].appl.middleware.ExampleService #full_proofs 0
scalar World.node[60].appl.middleware.ExampleService #half_proofs 2
scalar World.node[60].appl.middleware.ExampleService #failed_proofs 0
scalar World.node[60].appl.middleware.ExampleService #loc_proof_send 75
scalar World.node[60].nic.phy80211p busyTime 0.018814608695652
scalar World.node[60].nic.mac1609_4 ReceivedUnicastPackets 0
scalar World.node[60].nic.mac1609_4 ReceivedBroadcasts 13901
scalar World.node[60].nic.mac1609_4 SentPackets 412
scalar World.node[60].nic.mac1609_4 SentAcknowledgements 0
scalar World.node[60].nic.mac1609_4 SNIRLostPackets 2717
scalar World.node[60].nic.mac1609_4 RXTXLostPackets 934
scalar World.node[60].nic.mac1609_4 TotalLostPackets 3651
scalar World.node[60].nic.mac1609_4 DroppedPacketsInMac 0
scalar World.node[60].nic.mac1609_4 TooLittleTime 0
scalar World.node[60].nic.mac1609_4 TimesIntoBackoff 422
scalar World.node[60].nic.mac1609_4 SlotsBackoff 3045
scalar World.node[60].nic.mac1609_4 NumInternalContention 0
scalar World.node[60].nic.mac1609_4 totalBusyTime 2.511717449602
scalar World.node[42].appl.middleware.CaService #cam_sent 413
scalar World.node[42].appl.middleware.ExampleService #full_proofs 0
scalar World.node[42].appl.middleware.ExampleService #half_proofs 3
scalar World.node[42].appl.middleware.ExampleService #failed_proofs 0
scalar World.node[42].appl.middleware.ExampleService #loc_proof_send 107
scalar World.node[42].nic.phy80211p busyTime 0.017854091743121
scalar World.node[42].nic.mac1609_4 ReceivedUnicastPackets 0
scalar World.node[42].nic.mac1609_4 ReceivedBroadcasts 19174
scalar World.node[42].nic.mac1609_4 SentPackets 520
scalar World.node[42].nic.mac1609_4 SentAcknowledgements 0
scalar World.node[42].nic.mac1609_4 SNIRLostPackets 5573
scalar World.node[42].nic.mac1609_4 RXTXLostPackets 1522
scalar World.node[42].nic.mac1609_4 TotalLostPackets 7095
scalar World.node[42].nic.mac1609_4 DroppedPacketsInMac 0
scalar World.node[42].nic.mac1609_4 TooLittleTime 0
scalar World.node[42].nic.mac1609_4 TimesIntoBackoff 718
scalar World.node[42].nic.mac1609_4 SlotsBackoff 5220
scalar World.node[42].nic.mac1609_4 NumInternalContention 0
scalar World.node[42].nic.mac1609_4 totalBusyTime 3.802530978892
scalar World.node[72].appl.middleware.CaService #cam_sent 284
scalar World.node[72].appl.middleware.ExampleService #full_proofs 0
scalar World.node[72].appl.middleware.ExampleService #half_proofs 1
scalar World.node[72].appl.middleware.ExampleService #failed_proofs 0
scalar World.node[72].appl.middleware.ExampleService #loc_proof_send 51
scalar World.node[72].nic.phy80211p busyTime 0.019571538461536
scalar World.node[72].nic.mac1609_4 ReceivedUnicastPackets 0
scalar World.node[72].nic.mac1609_4 ReceivedBroadcasts 9878
scalar World.node[72].nic.mac1609_4 SentPackets 335
scalar World.node[72].nic.mac1609_4 SentAcknowledgements 0
scalar World.node[72].nic.mac1609_4 SNIRLostPackets 3132
scalar World.node[72].nic.mac1609_4 RXTXLostPackets 871
scalar World.node[72].nic.mac1609_4 TotalLostPackets 4003
scalar World.node[72].nic.mac1609_4 DroppedPacketsInMac 0
scalar World.node[72].nic.mac1609_4 TooLittleTime 0
scalar World.node[72].nic.mac1609_4 TimesIntoBackoff 340
scalar World.node[72].nic.mac1609_4 SlotsBackoff 2482
scalar World.node[72].nic.mac1609_4 NumInternalContention 0
scalar World.node[72].nic.mac1609_4 totalBusyTime 1.994152545253
scalar World.node[29].appl.middleware.CaService #cam_sent 752
scalar World.node[29].appl.middleware.ExampleService #full_proofs 0
scalar World.node[29].appl.middleware.ExampleService #half_proofs 5
scalar World.node[29].appl.middleware.ExampleService #failed_proofs 0
scalar World.node[29].appl.middleware.ExampleService #loc_proof_send 144
scalar World.node[29].nic.phy80211p busyTime 0.0172719139785
scalar World.node[29].nic.mac1609_4 ReceivedUnicastPackets 0
scalar World.node[29].nic.mac1609_4 ReceivedBroadcasts 26837
scalar World.node[29].nic.mac1609_4 SentPackets 896
scalar World.node[29].nic.mac1609_4 SentAcknowledgements 0
scalar World.node[29].nic.mac1609_4 SNIRLostPackets 3908
scalar World.node[29].nic.mac1609_4 RXTXLostPackets 1639
scalar World.node[29].nic.mac1609_4 TotalLostPackets 5547
scalar World.node[29].nic.mac1609_4 DroppedPacketsInMac 0
scalar World.node[29].nic.mac1609_4 TooLittleTime 0
scalar World.node[29].nic.mac1609_4 TimesIntoBackoff 914
scalar World.node[29].nic.mac1609_4 SlotsBackoff 6919
scalar World.node[29].nic.mac1609_4 NumInternalContention 0
scalar World.node[29].nic.mac1609_4 totalBusyTime 4.735517414477
scalar World.node[46].appl.middleware.CaService #cam_sent 548
scalar World.node[46].appl.middleware.ExampleService #full_proofs 0
scalar World.node[46].appl.middleware.ExampleService #half_proofs 4
scalar World.node[46].appl.middleware.ExampleService #failed_proofs 0
scalar World.node[46].appl.middleware.ExampleService #loc_proof_send 119
scalar World.node[46].nic.phy80211p busyTime 0.018579085201796
scalar World.node[46].nic.mac1609_4 ReceivedUnicastPackets 0
scalar World.node[46].nic.mac1609_4 ReceivedBroadcasts 22167
scalar World.node[46].nic.mac1609_4 SentPackets 667
scalar World.node[46].nic.mac1609_4 SentAcknowledgements 0
scalar World.node[46].nic.mac1609_4 SNIRLostPackets 4287
scalar World.node[46].nic.mac1609_4 RXTXLostPackets 1473
scalar World.node[46].nic.mac1609_4 TotalLostPackets 5760
scalar World.node[46].nic.mac1609_4 DroppedPacketsInMac 0
scalar World.node[46].nic.mac1609_4 TooLittleTime 0
scalar World.node[46].nic.mac1609_4 TimesIntoBackoff 685
scalar World.node[46].nic.mac1609_4 SlotsBackoff 5014
scalar World.node[46].nic.mac1609_4 NumInternalContention 0
scalar World.node[46].nic.mac1609_4 totalBusyTime 4.033880540812
scalar World.node[51].appl.middleware.CaService #cam_sent 552
scalar World.node[51].appl.middleware.ExampleService #full_proofs 0
scalar World.node[51].appl.middleware.ExampleService #half_proofs 3
scalar World.node[51].appl.middleware.ExampleService #failed_proofs 0
scalar World.node[51].appl.middleware.ExampleService #loc_proof_send 116
scalar World.node[51].nic.phy80211p busyTime 0.018604194174758
scalar World.node[51].nic.mac1609_4 ReceivedUnicastPackets 0
scalar World.node[51].nic.mac1609_4 ReceivedBroadcasts 20719
scalar World.node[51].nic.mac1609_4 SentPackets 668
scalar World.node[51].nic.mac1609_4 SentAcknowledgements 0
scalar World.node[51].nic.mac1609_4 SNIRLostPackets 3751
scalar World.node[51].nic.mac1609_4 RXTXLostPackets 1771
scalar World.node[51].nic.mac1609_4 TotalLostPackets 5522
scalar World.node[51].nic.mac1609_4 DroppedPacketsInMac 0
scalar World.node[51].nic.mac1609_4 TooLittleTime 0
scalar World.node[51].nic.mac1609_4 TimesIntoBackoff 691
scalar World.node[51].nic.mac1609_4 SlotsBackoff 5266
scalar World.node[51].nic.mac1609_4 NumInternalContention 0
scalar World.node[51].nic.mac1609_4 totalBusyTime 3.768137753079
scalar World.node[81].appl.middleware.CaService #cam_sent 229
scalar World.node[81].appl.middleware.ExampleService #full_proofs 0
scalar World.node[81].appl.middleware.ExampleService #half_proofs 1
scalar World.node[81].appl.middleware.ExampleService #failed_proofs 0
scalar World.node[81].appl.middleware.ExampleService #loc_proof_send 53
scalar World.node[81].nic.phy80211p busyTime 0.020457078651683
scalar World.node[81].nic.mac1609_4 ReceivedUnicastPackets 0
scalar World.node[81].nic.mac1609_4 ReceivedBroadcasts 9939
scalar World.node[81].nic.mac1609_4 SentPackets 282
scalar World.node[81].nic.mac1609_4 SentAcknowledgements 0
scalar World.node[81].nic.mac1609_4 SNIRLostPackets 1695
scalar World.node[81].nic.mac1609_4 RXTXLostPackets 912
scalar World.node[81].nic.mac1609_4 TotalLostPackets 2607
scalar World.node[81].nic.mac1609_4 DroppedPacketsInMac 0
scalar World.node[81].nic.mac1609_4 TooLittleTime 0
scalar World.node[81].nic.mac1609_4 TimesIntoBackoff 289
scalar World.node[81].nic.mac1609_4 SlotsBackoff 2169
scalar World.node[81].nic.mac1609_4 NumInternalContention 0
scalar World.node[81].nic.mac1609_4 totalBusyTime 1.774997061164
scalar World.node[78].appl.middleware.CaService #cam_sent 307
scalar World.node[78].appl.middleware.ExampleService #full_proofs 0
scalar World.node[78].appl.middleware.ExampleService #half_proofs 2
scalar World.node[78].appl.middleware.ExampleService #failed_proofs 0
scalar World.node[78].appl.middleware.ExampleService #loc_proof_send 61
scalar World.node[78].nic.phy80211p busyTime 0.020502311926604
scalar World.node[78].nic.mac1609_4 ReceivedUnicastPackets 0
scalar World.node[78].nic.mac1609_4 ReceivedBroadcasts 11484
scalar World.node[78].nic.mac1609_4 SentPackets 368
scalar World.node[78].nic.mac1609_4 SentAcknowledgements 0
scalar World.node[78].nic.mac1609_4 SNIRLostPackets 2882
scalar World.node[78].nic.mac1609_4 RXTXLostPackets 773
scalar World.node[78].nic.mac1609_4 TotalLostPackets 3655
scalar World.node[78].nic.mac1609_4 DroppedPacketsInMac 0
scalar World.node[78].nic.mac1609_4 TooLittleTime 0
scalar World.node[78].nic.mac1609_4 TimesIntoBackoff 373
scalar World.node[78].nic.mac1609_4 SlotsBackoff 2898
scalar World.node[78].nic.mac1609_4 NumInternalContention 0
scalar World.node[78].nic.mac1609_4 totalBusyTime 2.146899009076
scalar World.node[44].appl.middleware.CaService #cam_sent 630
scalar World.node[44].appl.middleware.ExampleService #full_proofs 0
scalar World.node[44].appl.middleware.ExampleService #half_proofs 4
scalar World.node[44].appl.middleware.ExampleService #failed_proofs 1
scalar World.node[44].appl.middleware.ExampleService #loc_proof_send 140
scalar World.node[44].nic.phy80211p busyTime 0.018519439688722
scalar World.node[44].nic.mac1609_4 ReceivedUnicastPackets 0
scalar World.node[44].nic.mac1609_4 ReceivedBroadcasts 26980
scalar World.node[44].nic.mac1609_4 SentPackets 770
scalar World.node[44].nic.mac1609_4 SentAcknowledgements 0
scalar World.node[44].nic.mac1609_4 SNIRLostPackets 3305
scalar World.node[44].nic.mac1609_4 RXTXLostPackets 2231
scalar World.node[44].nic.mac1609_4 TotalLostPackets 5536
scalar World.node[44].nic.mac1609_4 DroppedPacketsInMac 0
scalar World.node[44].nic.mac1609_4 TooLittleTime 0
scalar World.node[44].nic.mac1609_4 TimesIntoBackoff 790
scalar World.node[44].nic.mac1609_4 SlotsBackoff 5987
scalar World.node[44].nic.mac1609_4 NumInternalContention 0
scalar World.node[44].nic.mac1609_4 totalBusyTime 4.680721723683
scalar World.node[65].appl.middleware.CaService #cam_sent 466
scalar World.node[65].appl.middleware.ExampleService #full_proofs 0
scalar World.node[65].appl.middleware.ExampleService #half_proofs 2
scalar World.node[65].appl.middleware.ExampleService #failed_proofs 0
scalar World.node[65].appl.middleware.ExampleService #loc_proof_send 91
scalar World.node[65].nic.phy80211p busyTime 0.019709272727273
scalar World.node[65].nic.mac1609_4 ReceivedUnicastPackets 0
scalar World.node[65].nic.mac1609_4 ReceivedBroadcasts 16849
scalar World.node[65].nic.mac1609_4 SentPackets 557
scalar World.node[65].nic.mac1609_4 SentAcknowledgements 0
scalar World.node[65].nic.mac1609_4 SNIRLostPackets 5409
scalar World.node[65].nic.mac1609_4 RXTXLostPackets 1279
scalar World.node[65].nic.mac1609_4 TotalLostPackets 6688
scalar World.node[65].nic.mac1609_4 DroppedPacketsInMac 0
scalar World.node[65].nic.mac1609_4 TooLittleTime 0
scalar World.node[65].nic.mac1609_4 TimesIntoBackoff 573
scalar World.node[65].nic.mac1609_4 SlotsBackoff 4116
scalar World.node[65].nic.mac1609_4 NumInternalContention 0
scalar World.node[65].nic.mac1609_4 totalBusyTime 3.334935629039
scalar World.node[66].appl.middleware.CaService #cam_sent 516
scalar World.node[66].appl.middleware.ExampleService #full_proofs 0
scalar World.node[66].appl.middleware.ExampleService #half_proofs 3
scalar World.node[66].appl.middleware.ExampleService #failed_proofs 0
scalar World.node[66].appl.middleware.ExampleService #loc_proof_send 105
scalar World.node[66].nic.phy80211p busyTime 0.019762347826088
scalar World.node[66].nic.mac1609_4 ReceivedUnicastPackets 0
scalar World.node[66].nic.mac1609_4 ReceivedBroadcasts 19141
scalar World.node[66].nic.mac1609_4 SentPackets 621
scalar World.node[66].nic.mac1609_4 SentAcknowledgements 0
scalar World.node[66].nic.mac1609_4 SNIRLostPackets 4158
scalar World.node[66].nic.mac1609_4 RXTXLostPackets 1454
scalar World.node[66].nic.mac1609_4 TotalLostPackets 5612
scalar World.node[66].nic.mac1609_4 DroppedPacketsInMac 0
scalar World.node[66].nic.mac1609_4 TooLittleTime 0
scalar World.node[66].nic.mac1609_4 TimesIntoBackoff 633
scalar World.node[66].nic.mac1609_4 SlotsBackoff 4795
scalar World.node[66].nic.mac1609_4 NumInternalContention 0
scalar World.node[66].nic.mac1609_4 totalBusyTime 3.507467216852
scalar World.node[61].appl.middleware.CaService #cam_sent 509
scalar World.node[61].appl.middleware.ExampleService #full_proofs 0
scalar World.node[61].appl.middleware.ExampleService #half_proofs 3
scalar World.node[61].appl.middleware.ExampleService #failed_proofs 0
scalar World.node[61].appl.middleware.ExampleService #loc_proof_send 121
scalar World.node[61].nic.phy80211p busyTime 0.019314088669952
scalar World.node[61].nic.mac1609_4 ReceivedUnicastPackets 0
scalar World.node[61].nic.mac1609_4 ReceivedBroadcasts 22570
scalar World.node[61].nic.mac1609_4 SentPackets 630
scalar World.node[61].nic.mac1609_4 SentAcknowledgements 0
scalar World.node[61].nic.mac1609_4 SNIRLostPackets 2440
scalar World.node[61].nic.mac1609_4 RXTXLostPackets 1899
scalar World.node[61].nic.mac1609_4 TotalLostPackets 4339
scalar World.node[61].nic.mac1609_4 DroppedPacketsInMac 0
scalar World.node[61].nic.mac1609_4 TooLittleTime 0
scalar World.node[61].nic.mac1609_4 TimesIntoBackoff 653
scalar World.node[61].nic.mac1609_4 SlotsBackoff 4764
scalar World.node[61].nic.mac1609_4 NumInternalContention 0
scalar World.node[61].nic.mac1609_4 totalBusyTime 3.821542536539
scalar World.node[74].appl.middleware.CaService #cam_sent 351
scalar World.node[74].appl.middleware.ExampleService #full_proofs 0
scalar World.node[74].appl.middleware.ExampleService #half_proofs 3
scalar World.node[74].appl.middleware.ExampleService #failed_proofs 0
scalar World.node[74].appl.middleware.ExampleService #loc_proof_send 95
scalar World.node[74].nic.phy80211p busyTime 0.020015946308725
scalar World.node[74].nic.mac1609_4 ReceivedUnicastPackets 0
scalar World.node[74].nic.mac1609_4 ReceivedBroadcasts 16962
scalar World.node[74].nic.mac1609_4 SentPackets 446
[...]
scalar World.node[886].appl.middleware.CaService #cam_sent 639
scalar World.node[886].appl.middleware.ExampleService #full_proofs 0
scalar World.node[886].appl.middleware.ExampleService #half_proofs 5
scalar World.node[886].appl.middleware.ExampleService #failed_proofs 1
scalar World.node[886].appl.middleware.ExampleService #loc_proof_send 211
scalar World.node[886].nic.phy80211p busyTime 0.019026141732299
scalar World.node[886].nic.mac1609_4 ReceivedUnicastPackets 0
scalar World.node[886].nic.mac1609_4 ReceivedBroadcasts 37387
scalar World.node[886].nic.mac1609_4 SentPackets 850
scalar World.node[886].nic.mac1609_4 SentAcknowledgements 0
scalar World.node[886].nic.mac1609_4 SNIRLostPackets 8929
scalar World.node[886].nic.mac1609_4 RXTXLostPackets 4157
scalar World.node[886].nic.mac1609_4 TotalLostPackets 13086
scalar World.node[886].nic.mac1609_4 DroppedPacketsInMac 0
scalar World.node[886].nic.mac1609_4 TooLittleTime 0
scalar World.node[886].nic.mac1609_4 TimesIntoBackoff 1002
scalar World.node[886].nic.mac1609_4 SlotsBackoff 7623
scalar World.node[886].nic.mac1609_4 NumInternalContention 0
scalar World.node[886].nic.mac1609_4 totalBusyTime 6.947221786185
scalar World.node[921].appl.middleware.CaService #cam_sent 648
scalar World.node[921].appl.middleware.ExampleService #full_proofs 0
scalar World.node[921].appl.middleware.ExampleService #half_proofs 4
scalar World.node[921].appl.middleware.ExampleService #failed_proofs 0
scalar World.node[921].appl.middleware.ExampleService #loc_proof_send 85
scalar World.node[921].nic.phy80211p busyTime 0.015275004081633
scalar World.node[921].nic.mac1609_4 ReceivedUnicastPackets 0
scalar World.node[921].nic.mac1609_4 ReceivedBroadcasts 13746
scalar World.node[921].nic.mac1609_4 SentPackets 733
scalar World.node[921].nic.mac1609_4 SentAcknowledgements 0
scalar World.node[921].nic.mac1609_4 SNIRLostPackets 10278
scalar World.node[921].nic.mac1609_4 RXTXLostPackets 1302
scalar World.node[921].nic.mac1609_4 TotalLostPackets 11580
scalar World.node[921].nic.mac1609_4 DroppedPacketsInMac 0
scalar World.node[921].nic.mac1609_4 TooLittleTime 0
scalar World.node[921].nic.mac1609_4 TimesIntoBackoff 742
scalar World.node[921].nic.mac1609_4 SlotsBackoff 5824
scalar World.node[921].nic.mac1609_4 NumInternalContention 0
scalar World.node[921].nic.mac1609_4 totalBusyTime 3.591061826603
scalar World.node[916].appl.middleware.CaService #cam_sent 640
scalar World.node[916].appl.middleware.ExampleService #full_proofs 0
scalar World.node[916].appl.middleware.ExampleService #half_proofs 5
scalar World.node[916].appl.middleware.ExampleService #failed_proofs 0
scalar World.node[916].appl.middleware.ExampleService #loc_proof_send 116
scalar World.node[916].nic.phy80211p busyTime 0.015566304832715
scalar World.node[916].nic.mac1609_4 ReceivedUnicastPackets 0
scalar World.node[916].nic.mac1609_4 ReceivedBroadcasts 19974
scalar World.node[916].nic.mac1609_4 SentPackets 756
scalar World.node[916].nic.mac1609_4 SentAcknowledgements 0
scalar World.node[916].nic.mac1609_4 SNIRLostPackets 6802
scalar World.node[916].nic.mac1609_4 RXTXLostPackets 1789
scalar World.node[916].nic.mac1609_4 TotalLostPackets 8591
scalar World.node[916].nic.mac1609_4 DroppedPacketsInMac 0
scalar World.node[916].nic.mac1609_4 TooLittleTime 0
scalar World.node[916].nic.mac1609_4 TimesIntoBackoff 774
scalar World.node[916].nic.mac1609_4 SlotsBackoff 5882
scalar World.node[916].nic.mac1609_4 NumInternalContention 0
scalar World.node[916].nic.mac1609_4 totalBusyTime 4.034215541031
scalar World.node[940].appl.middleware.CaService #cam_sent 546
scalar World.node[940].appl.middleware.ExampleService #full_proofs 0
scalar World.node[940].appl.middleware.ExampleService #half_proofs 3
scalar World.node[940].appl.middleware.ExampleService #failed_proofs 0
scalar World.node[940].appl.middleware.ExampleService #loc_proof_send 80
scalar World.node[940].nic.phy80211p busyTime 0.011686340425531
scalar World.node[940].nic.mac1609_4 ReceivedUnicastPackets 0
scalar World.node[940].nic.mac1609_4 ReceivedBroadcasts 12112
scalar World.node[940].nic.mac1609_4 SentPackets 626
scalar World.node[940].nic.mac1609_4 SentAcknowledgements 0
scalar World.node[940].nic.mac1609_4 SNIRLostPackets 1785
scalar World.node[940].nic.mac1609_4 RXTXLostPackets 1114
scalar World.node[940].nic.mac1609_4 TotalLostPackets 2899
scalar World.node[940].nic.mac1609_4 DroppedPacketsInMac 0
scalar World.node[940].nic.mac1609_4 TooLittleTime 0
scalar World.node[940].nic.mac1609_4 TimesIntoBackoff 911
scalar World.node[940].nic.mac1609_4 SlotsBackoff 6824
scalar World.node[940].nic.mac1609_4 NumInternalContention 0
scalar World.node[940].nic.mac1609_4 totalBusyTime 2.198859197614
scalar World.node[939].appl.middleware.CaService #cam_sent 483
scalar World.node[939].appl.middleware.ExampleService #full_proofs 0
scalar World.node[939].appl.middleware.ExampleService #half_proofs 3
scalar World.node[939].appl.middleware.ExampleService #failed_proofs 0
scalar World.node[939].appl.middleware.ExampleService #loc_proof_send 62
scalar World.node[939].nic.phy80211p busyTime 0.011962321243522
scalar World.node[939].nic.mac1609_4 ReceivedUnicastPackets 0
scalar World.node[939].nic.mac1609_4 ReceivedBroadcasts 10343
scalar World.node[939].nic.mac1609_4 SentPackets 545
scalar World.node[939].nic.mac1609_4 SentAcknowledgements 0
scalar World.node[939].nic.mac1609_4 SNIRLostPackets 4356
scalar World.node[939].nic.mac1609_4 RXTXLostPackets 889
scalar World.node[939].nic.mac1609_4 TotalLostPackets 5245
scalar World.node[939].nic.mac1609_4 DroppedPacketsInMac 0
scalar World.node[939].nic.mac1609_4 TooLittleTime 0
scalar World.node[939].nic.mac1609_4 TimesIntoBackoff 555
scalar World.node[939].nic.mac1609_4 SlotsBackoff 4335
scalar World.node[939].nic.mac1609_4 NumInternalContention 0
scalar World.node[939].nic.mac1609_4 totalBusyTime 2.260241911026
scalar World.node[888].appl.middleware.CaService #cam_sent 955
scalar World.node[888].appl.middleware.ExampleService #full_proofs 0
scalar World.node[888].appl.middleware.ExampleService #half_proofs 7
scalar World.node[888].appl.middleware.ExampleService #failed_proofs 0
scalar World.node[888].appl.middleware.ExampleService #loc_proof_send 209
scalar World.node[888].nic.phy80211p busyTime 0.018111780000015
scalar World.node[888].nic.mac1609_4 ReceivedUnicastPackets 0
scalar World.node[888].nic.mac1609_4 ReceivedBroadcasts 37364
scalar World.node[888].nic.mac1609_4 SentPackets 1163
scalar World.node[888].nic.mac1609_4 SentAcknowledgements 0
scalar World.node[888].nic.mac1609_4 SNIRLostPackets 9070
scalar World.node[888].nic.mac1609_4 RXTXLostPackets 3451
scalar World.node[888].nic.mac1609_4 TotalLostPackets 12521
scalar World.node[888].nic.mac1609_4 DroppedPacketsInMac 0
scalar World.node[888].nic.mac1609_4 TooLittleTime 0
scalar World.node[888].nic.mac1609_4 TimesIntoBackoff 1182
scalar World.node[888].nic.mac1609_4 SlotsBackoff 8776
scalar World.node[888].nic.mac1609_4 NumInternalContention 0
scalar World.node[888].nic.mac1609_4 totalBusyTime 6.922135290637
scalar World.node[896].appl.middleware.CaService #cam_sent 691
scalar World.node[896].appl.middleware.ExampleService #full_proofs 0
scalar World.node[896].appl.middleware.ExampleService #half_proofs 6
scalar World.node[896].appl.middleware.ExampleService #failed_proofs 0
scalar World.node[896].appl.middleware.ExampleService #loc_proof_send 195
scalar World.node[896].nic.phy80211p busyTime 0.01692717837839
scalar World.node[896].nic.mac1609_4 ReceivedUnicastPackets 0
scalar World.node[896].nic.mac1609_4 ReceivedBroadcasts 34601
scalar World.node[896].nic.mac1609_4 SentPackets 886
scalar World.node[896].nic.mac1609_4 SentAcknowledgements 0
scalar World.node[896].nic.mac1609_4 SNIRLostPackets 5225
scalar World.node[896].nic.mac1609_4 RXTXLostPackets 3508
scalar World.node[896].nic.mac1609_4 TotalLostPackets 8733
scalar World.node[896].nic.mac1609_4 DroppedPacketsInMac 0
scalar World.node[896].nic.mac1609_4 TooLittleTime 0
scalar World.node[896].nic.mac1609_4 TimesIntoBackoff 913
scalar World.node[896].nic.mac1609_4 SlotsBackoff 6872
scalar World.node[896].nic.mac1609_4 NumInternalContention 0
scalar World.node[896].nic.mac1609_4 totalBusyTime 6.067890458231
scalar World.node[911].appl.middleware.CaService #cam_sent 707
scalar World.node[911].appl.middleware.ExampleService #full_proofs 0
scalar World.node[911].appl.middleware.ExampleService #half_proofs 5
scalar World.node[911].appl.middleware.ExampleService #failed_proofs 0
scalar World.node[911].appl.middleware.ExampleService #loc_proof_send 158
scalar World.node[911].nic.phy80211p busyTime 0.015070317073176
scalar World.node[911].nic.mac1609_4 ReceivedUnicastPackets 0
scalar World.node[911].nic.mac1609_4 ReceivedBroadcasts 26755
scalar World.node[911].nic.mac1609_4 SentPackets 865
scalar World.node[911].nic.mac1609_4 SentAcknowledgements 0
scalar World.node[911].nic.mac1609_4 SNIRLostPackets 4691
scalar World.node[911].nic.mac1609_4 RXTXLostPackets 2337
scalar World.node[911].nic.mac1609_4 TotalLostPackets 7028
scalar World.node[911].nic.mac1609_4 DroppedPacketsInMac 0
scalar World.node[911].nic.mac1609_4 TooLittleTime 0
scalar World.node[911].nic.mac1609_4 TimesIntoBackoff 883
scalar World.node[911].nic.mac1609_4 SlotsBackoff 6595
scalar World.node[911].nic.mac1609_4 NumInternalContention 0
scalar World.node[911].nic.mac1609_4 totalBusyTime 4.804634737775
scalar World.node[937].appl.middleware.CaService #cam_sent 525
scalar World.node[937].appl.middleware.ExampleService #full_proofs 0
scalar World.node[937].appl.middleware.ExampleService #half_proofs 3
scalar World.node[937].appl.middleware.ExampleService #failed_proofs 1
scalar World.node[937].appl.middleware.ExampleService #loc_proof_send 95
scalar World.node[937].nic.phy80211p busyTime 0.011189868995632
scalar World.node[937].nic.mac1609_4 ReceivedUnicastPackets 0
scalar World.node[937].nic.mac1609_4 ReceivedBroadcasts 14578
scalar World.node[937].nic.mac1609_4 SentPackets 620
scalar World.node[937].nic.mac1609_4 SentAcknowledgements 0
scalar World.node[937].nic.mac1609_4 SNIRLostPackets 1623
scalar World.node[937].nic.mac1609_4 RXTXLostPackets 1481
scalar World.node[937].nic.mac1609_4 TotalLostPackets 3104
scalar World.node[937].nic.mac1609_4 DroppedPacketsInMac 0
scalar World.node[937].nic.mac1609_4 TooLittleTime 0
scalar World.node[937].nic.mac1609_4 TimesIntoBackoff 636
scalar World.node[937].nic.mac1609_4 SlotsBackoff 4617
scalar World.node[937].nic.mac1609_4 NumInternalContention 0
scalar World.node[937].nic.mac1609_4 totalBusyTime 2.548168041593
scalar World.node[898].appl.middleware.CaService #cam_sent 962
scalar World.node[898].appl.middleware.ExampleService #full_proofs 0
scalar World.node[898].appl.middleware.ExampleService #half_proofs 7
scalar World.node[898].appl.middleware.ExampleService #failed_proofs 0
scalar World.node[898].appl.middleware.ExampleService #loc_proof_send 196
scalar World.node[898].nic.phy80211p busyTime 0.015182450980402
scalar World.node[898].nic.mac1609_4 ReceivedUnicastPackets 0
scalar World.node[898].nic.mac1609_4 ReceivedBroadcasts 34010
scalar World.node[898].nic.mac1609_4 SentPackets 1158
scalar World.node[898].nic.mac1609_4 SentAcknowledgements 0
scalar World.node[898].nic.mac1609_4 SNIRLostPackets 5250
scalar World.node[898].nic.mac1609_4 RXTXLostPackets 3747
scalar World.node[898].nic.mac1609_4 TotalLostPackets 8997
scalar World.node[898].nic.mac1609_4 DroppedPacketsInMac 0
scalar World.node[898].nic.mac1609_4 TooLittleTime 0
scalar World.node[898].nic.mac1609_4 TimesIntoBackoff 1184
scalar World.node[898].nic.mac1609_4 SlotsBackoff 9133
scalar World.node[898].nic.mac1609_4 NumInternalContention 0
scalar World.node[898].nic.mac1609_4 totalBusyTime 6.083200922717
scalar World.node[928].appl.middleware.CaService #cam_sent 744
scalar World.node[928].appl.middleware.ExampleService #full_proofs 0
scalar World.node[928].appl.middleware.ExampleService #half_proofs 6
scalar World.node[928].appl.middleware.ExampleService #failed_proofs 0
scalar World.node[928].appl.middleware.ExampleService #loc_proof_send 117
scalar World.node[928].nic.phy80211p busyTime 0.010810895705522
scalar World.node[928].nic.mac1609_4 ReceivedUnicastPackets 0
scalar World.node[928].nic.mac1609_4 ReceivedBroadcasts 18433
scalar World.node[928].nic.mac1609_4 SentPackets 861
scalar World.node[928].nic.mac1609_4 SentAcknowledgements 0
scalar World.node[928].nic.mac1609_4 SNIRLostPackets 3918
scalar World.node[928].nic.mac1609_4 RXTXLostPackets 1691
scalar World.node[928].nic.mac1609_4 TotalLostPackets 5609
scalar World.node[928].nic.mac1609_4 DroppedPacketsInMac 0
scalar World.node[928].nic.mac1609_4 TooLittleTime 0
scalar World.node[928].nic.mac1609_4 TimesIntoBackoff 878
scalar World.node[928].nic.mac1609_4 SlotsBackoff 6628
scalar World.node[928].nic.mac1609_4 NumInternalContention 0
scalar World.node[928].nic.mac1609_4 totalBusyTime 3.485905907902
scalar World.node[934].appl.middleware.CaService #cam_sent 586
scalar World.node[934].appl.middleware.ExampleService #full_proofs 0
scalar World.node[934].appl.middleware.ExampleService #half_proofs 5
scalar World.node[934].appl.middleware.ExampleService #failed_proofs 0
scalar World.node[934].appl.middleware.ExampleService #loc_proof_send 99
scalar World.node[934].nic.phy80211p busyTime 0.010317246753247
scalar World.node[934].nic.mac1609_4 ReceivedUnicastPackets 0
scalar World.node[934].nic.mac1609_4 ReceivedBroadcasts 16519
scalar World.node[934].nic.mac1609_4 SentPackets 685
scalar World.node[934].nic.mac1609_4 SentAcknowledgements 0
scalar World.node[934].nic.mac1609_4 SNIRLostPackets 3630
scalar World.node[934].nic.mac1609_4 RXTXLostPackets 1307
scalar World.node[934].nic.mac1609_4 TotalLostPackets 4937
scalar World.node[934].nic.mac1609_4 DroppedPacketsInMac 0
scalar World.node[934].nic.mac1609_4 TooLittleTime 0
scalar World.node[934].nic.mac1609_4 TimesIntoBackoff 697
scalar World.node[934].nic.mac1609_4 SlotsBackoff 5298
scalar World.node[934].nic.mac1609_4 NumInternalContention 0
scalar World.node[934].nic.mac1609_4 totalBusyTime 3.121273341796
scalar World.node[895].appl.middleware.CaService #cam_sent 1044
scalar World.node[895].appl.middleware.ExampleService #full_proofs 0
scalar World.node[895].appl.middleware.ExampleService #half_proofs 7
scalar World.node[895].appl.middleware.ExampleService #failed_proofs 1
scalar World.node[895].appl.middleware.ExampleService #loc_proof_send 213
scalar World.node[895].nic.phy80211p busyTime 0.014001804255329
scalar World.node[895].nic.mac1609_4 ReceivedUnicastPackets 0
scalar World.node[895].nic.mac1609_4 ReceivedBroadcasts 35528
scalar World.node[895].nic.mac1609_4 SentPackets 1257
scalar World.node[895].nic.mac1609_4 SentAcknowledgements 0
scalar World.node[895].nic.mac1609_4 SNIRLostPackets 6256
scalar World.node[895].nic.mac1609_4 RXTXLostPackets 3597
scalar World.node[895].nic.mac1609_4 TotalLostPackets 9853
scalar World.node[895].nic.mac1609_4 DroppedPacketsInMac 0
scalar World.node[895].nic.mac1609_4 TooLittleTime 0
scalar World.node[895].nic.mac1609_4 TimesIntoBackoff 1281
scalar World.node[895].nic.mac1609_4 SlotsBackoff 9766
scalar World.node[895].nic.mac1609_4 NumInternalContention 0
scalar World.node[895].nic.mac1609_4 totalBusyTime 6.434589938549
scalar World.node[914].appl.middleware.CaService #cam_sent 936
scalar World.node[914].appl.middleware.ExampleService #full_proofs 0
scalar World.node[914].appl.middleware.ExampleService #half_proofs 7
scalar World.node[914].appl.middleware.ExampleService #failed_proofs 0
scalar World.node[914].appl.middleware.ExampleService #loc_proof_send 146
scalar World.node[914].nic.phy80211p busyTime 0.011619980099506
scalar World.node[914].nic.mac1609_4 ReceivedUnicastPackets 0
scalar World.node[914].nic.mac1609_4 ReceivedBroadcasts 23541
scalar World.node[914].nic.mac1609_4 SentPackets 1082
scalar World.node[914].nic.mac1609_4 SentAcknowledgements 0
scalar World.node[914].nic.mac1609_4 SNIRLostPackets 6077
scalar World.node[914].nic.mac1609_4 RXTXLostPackets 2199
scalar World.node[914].nic.mac1609_4 TotalLostPackets 8276
scalar World.node[914].nic.mac1609_4 DroppedPacketsInMac 0
scalar World.node[914].nic.mac1609_4 TooLittleTime 0
scalar World.node[914].nic.mac1609_4 TimesIntoBackoff 1109
scalar World.node[914].nic.mac1609_4 SlotsBackoff 8396
scalar World.node[914].nic.mac1609_4 NumInternalContention 0
scalar World.node[914].nic.mac1609_4 totalBusyTime 4.600154751861
scalar World.node[919].appl.middleware.CaService #cam_sent 930
scalar World.node[919].appl.middleware.ExampleService #full_proofs 0
scalar World.node[919].appl.middleware.ExampleService #half_proofs 6
scalar World.node[919].appl.middleware.ExampleService #failed_proofs 0
scalar World.node[919].appl.middleware.ExampleService #loc_proof_send 147
scalar World.node[919].nic.phy80211p busyTime 0.011114241645246
scalar World.node[919].nic.mac1609_4 ReceivedUnicastPackets 0
scalar World.node[919].nic.mac1609_4 ReceivedBroadcasts 23787
scalar World.node[919].nic.mac1609_4 SentPackets 1077
scalar World.node[919].nic.mac1609_4 SentAcknowledgements 0
scalar World.node[919].nic.mac1609_4 SNIRLostPackets 3572
scalar World.node[919].nic.mac1609_4 RXTXLostPackets 2235
scalar World.node[919].nic.mac1609_4 TotalLostPackets 5807
scalar World.node[919].nic.mac1609_4 DroppedPacketsInMac 0
scalar World.node[919].nic.mac1609_4 TooLittleTime 0
scalar World.node[919].nic.mac1609_4 TimesIntoBackoff 1101
scalar World.node[919].nic.mac1609_4 SlotsBackoff 8287
scalar World.node[919].nic.mac1609_4 NumInternalContention 0
scalar World.node[919].nic.mac1609_4 totalBusyTime 4.294523618699
scalar World.node[922].appl.middleware.CaService #cam_sent 762
scalar World.node[922].appl.middleware.ExampleService #full_proofs 0
scalar World.node[922].appl.middleware.ExampleService #half_proofs 7
scalar World.node[922].appl.middleware.ExampleService #failed_proofs 0
scalar World.node[922].appl.middleware.ExampleService #loc_proof_send 126
scalar World.node[922].nic.phy80211p busyTime 0.010552374025975
scalar World.node[922].nic.mac1609_4 ReceivedUnicastPackets 0
scalar World.node[922].nic.mac1609_4 ReceivedBroadcasts 20551
scalar World.node[922].nic.mac1609_4 SentPackets 888
scalar World.node[922].nic.mac1609_4 SentAcknowledgements 0
scalar World.node[922].nic.mac1609_4 SNIRLostPackets 5221
scalar World.node[922].nic.mac1609_4 RXTXLostPackets 1954
scalar World.node[922].nic.mac1609_4 TotalLostPackets 7175
scalar World.node[922].nic.mac1609_4 DroppedPacketsInMac 0
scalar World.node[922].nic.mac1609_4 TooLittleTime 0
scalar World.node[922].nic.mac1609_4 TimesIntoBackoff 909
scalar World.node[922].nic.mac1609_4 SlotsBackoff 6618
scalar World.node[922].nic.mac1609_4 NumInternalContention 0
scalar World.node[922].nic.mac1609_4 totalBusyTime 4.004985279879
scalar World.node[941].appl.middleware.CaService #cam_sent 917
scalar World.node[941].appl.middleware.ExampleService #full_proofs 0
scalar World.node[941].appl.middleware.ExampleService #half_proofs 5
scalar World.node[941].appl.middleware.ExampleService #failed_proofs 0
scalar World.node[941].appl.middleware.ExampleService #loc_proof_send 91
scalar World.node[941].nic.phy80211p busyTime 0.0061296155717758
scalar World.node[941].nic.mac1609_4 ReceivedUnicastPackets 0
scalar World.node[941].nic.mac1609_4 ReceivedBroadcasts 14138
scalar World.node[941].nic.mac1609_4 SentPackets 1008
scalar World.node[941].nic.mac1609_4 SentAcknowledgements 0
scalar World.node[941].nic.mac1609_4 SNIRLostPackets 1738
scalar World.node[941].nic.mac1609_4 RXTXLostPackets 1095
scalar World.node[941].nic.mac1609_4 TotalLostPackets 2833
scalar World.node[941].nic.mac1609_4 DroppedPacketsInMac 0
scalar World.node[941].nic.mac1609_4 TooLittleTime 0
scalar World.node[941].nic.mac1609_4 TimesIntoBackoff 1023
scalar World.node[941].nic.mac1609_4 SlotsBackoff 8001
scalar World.node[941].nic.mac1609_4 NumInternalContention 0
scalar World.node[941].nic.mac1609_4 totalBusyTime 2.577763353026

