version 2
run No_Obstacles-1-20191117-11:36:47-6118
attr configname No_Obstacles
attr datetime 20191117-11:36:47
attr experiment No_Obstacles
attr inifile omnetpp.ini
attr iterationvars $0=40
attr iterationvarsf 40-
attr measurement $0=40
attr network artery.veins.World
attr processid 6118
attr repetition 0
attr replication #0
attr resultdir results
attr runnumber 1
attr seedset 1
param *.traci.launcher.sumocfg "\"No_Obstacles/run.sumo.cfg\""
param *.node[*].nic.mac1609_4.txPower 20mW
param *.node[*].nic.phy80211p.decider "xmldoc(\"config.xml\")"
param *.node[*].nic.phy80211p.analogueModels "xmldoc(\"config.xml\")"
param *.node[*].applType "\"artery.veins.ApplicationLayer\""
param *.node[*].appl.middleware.updateInterval 0.1s
param *.node[*].appl.middleware.datetime "\"2013-06-01 12:35:00\""
param *.node[*].appl.middleware.services "xmldoc(\"services.xml\")"
param *.node[*].appl.middleware.ExampleService.DecisionLogic 40
param *.node[*].appl.middleware.ExampleService.NeighboringWindow 60
param *.traci.core.version -1
param *.traci.launcher.typename "\"PosixLauncher\""
param *.playgroundSizeX 4000m
param *.playgroundSizeY 4000m
param *.playgroundSizeZ 50m
param *.connectionManager.maxInterfDist 1500m
param *.connectionManager.sendDirect true
param *.connectionManager.coreDebug false

vector 0 World.node[3].appl.middleware.ExampleService proof_size ETV
vector 1 World.node[3].appl.middleware.ExampleService proof_requested ETV
vector 2 World.node[7].appl.middleware.ExampleService proof_size ETV
vector 3 World.node[7].appl.middleware.ExampleService proof_requested ETV
vector 4 World.node[9].appl.middleware.ExampleService proof_size ETV
vector 5 World.node[9].appl.middleware.ExampleService proof_requested ETV
1	6496	20.146903639706	3
0	6496	20.146903639706	3
vector 6 World.node[1].appl.middleware.ExampleService proof_size ETV
vector 7 World.node[1].appl.middleware.ExampleService proof_requested ETV
vector 8 World.node[5].appl.middleware.ExampleService proof_size ETV
vector 9 World.node[5].appl.middleware.ExampleService proof_requested ETV
vector 10 World.node[11].appl.middleware.ExampleService proof_size ETV
vector 11 World.node[11].appl.middleware.ExampleService proof_requested ETV
vector 12 World.node[15].appl.middleware.ExampleService proof_size ETV
vector 13 World.node[15].appl.middleware.ExampleService proof_requested ETV
vector 14 World.node[10].appl.middleware.ExampleService proof_size ETV
vector 15 World.node[10].appl.middleware.ExampleService proof_requested ETV
vector 16 World.node[0].appl.middleware.ExampleService proof_size ETV
vector 17 World.node[0].appl.middleware.ExampleService proof_requested ETV
5	30663	38.048372584931	8
4	30663	38.048372584931	1
vector 18 World.node[4].appl.middleware.ExampleService proof_size ETV
vector 19 World.node[4].appl.middleware.ExampleService proof_requested ETV
vector 20 World.node[6].appl.middleware.ExampleService proof_size ETV
vector 21 World.node[6].appl.middleware.ExampleService proof_requested ETV
vector 22 World.node[13].appl.middleware.ExampleService proof_size ETV
vector 23 World.node[13].appl.middleware.ExampleService proof_requested ETV
vector 24 World.node[20].appl.middleware.ExampleService proof_size ETV
vector 25 World.node[20].appl.middleware.ExampleService proof_requested ETV
vector 26 World.node[8].appl.middleware.ExampleService proof_size ETV
vector 27 World.node[8].appl.middleware.ExampleService proof_requested ETV
vector 28 World.node[12].appl.middleware.ExampleService proof_size ETV
vector 29 World.node[12].appl.middleware.ExampleService proof_requested ETV
vector 30 World.node[17].appl.middleware.ExampleService proof_size ETV
vector 31 World.node[17].appl.middleware.ExampleService proof_requested ETV
vector 32 World.node[18].appl.middleware.ExampleService proof_size ETV
vector 33 World.node[18].appl.middleware.ExampleService proof_requested ETV
17	110094	59.054966247594	14
16	110094	59.054966247594	7
7	46066	44.081822672207	9
7	429066	104.081822672207	19
6	46066	44.081822672207	5
6	429066	104.081822672207	4
vector 34 World.node[14].appl.middleware.ExampleService proof_size ETV
vector 35 World.node[14].appl.middleware.ExampleService proof_requested ETV
vector 36 World.node[16].appl.middleware.ExampleService proof_size ETV
vector 37 World.node[16].appl.middleware.ExampleService proof_requested ETV
vector 38 World.node[25].appl.middleware.ExampleService proof_size ETV
vector 39 World.node[25].appl.middleware.ExampleService proof_requested ETV
vector 40 World.node[23].appl.middleware.ExampleService proof_size ETV
vector 41 World.node[23].appl.middleware.ExampleService proof_requested ETV
vector 42 World.node[19].appl.middleware.ExampleService proof_size ETV
vector 43 World.node[19].appl.middleware.ExampleService proof_requested ETV
vector 44 World.node[29].appl.middleware.ExampleService proof_size ETV
vector 45 World.node[29].appl.middleware.ExampleService proof_requested ETV
vector 46 World.node[30].appl.middleware.ExampleService proof_size ETV
vector 47 World.node[30].appl.middleware.ExampleService proof_requested ETV
21	214661	78.097279381612	16
21	912907	138.097279381612	28
20	214661	78.097279381612	7
20	912907	138.097279381612	16
43	731984	128.053712577908	20
42	731984	128.053712577908	7
vector 48 World.node[24].appl.middleware.ExampleService proof_size ETV
vector 49 World.node[24].appl.middleware.ExampleService proof_requested ETV
23	247717	83.011086605769	17
23	998831	143.011086605769	27
22	247717	83.011086605769	5
22	998831	143.011086605769	4
vector 50 World.node[36].appl.middleware.ExampleService proof_size ETV
vector 51 World.node[36].appl.middleware.ExampleService proof_requested ETV
vector 52 World.node[26].appl.middleware.ExampleService proof_size ETV
vector 53 World.node[26].appl.middleware.ExampleService proof_requested ETV
vector 54 World.node[27].appl.middleware.ExampleService proof_size ETV
vector 55 World.node[27].appl.middleware.ExampleService proof_requested ETV
vector 56 World.node[28].appl.middleware.ExampleService proof_size ETV
vector 57 World.node[28].appl.middleware.ExampleService proof_requested ETV
27	309242	91.033258805913	18
27	1153779	151.033258805913	28
26	309242	91.033258805913	10
26	1153779	151.033258805913	6
vector 58 World.node[31].appl.middleware.ExampleService proof_size ETV
vector 59 World.node[31].appl.middleware.ExampleService proof_requested ETV
vector 60 World.node[33].appl.middleware.ExampleService proof_size ETV
vector 61 World.node[33].appl.middleware.ExampleService proof_requested ETV
vector 62 World.node[34].appl.middleware.ExampleService proof_size ETV
vector 63 World.node[34].appl.middleware.ExampleService proof_requested ETV
vector 64 World.node[40].appl.middleware.ExampleService proof_size ETV
vector 65 World.node[40].appl.middleware.ExampleService proof_requested ETV
vector 66 World.node[38].appl.middleware.ExampleService proof_size ETV
vector 67 World.node[38].appl.middleware.ExampleService proof_requested ETV
vector 68 World.node[32].appl.middleware.ExampleService proof_size ETV
vector 69 World.node[32].appl.middleware.ExampleService proof_requested ETV
13	94858	56.04897046343	13
13	561297	116.04897046343	21
13	1667930	176.04897046343	28
12	94858	56.04897046343	4
12	561297	116.04897046343	6
12	1667930	176.04897046343	8
37	573563	117.001388846315	21
37	1684285	177.001388846315	17
36	573563	117.001388846315	11
36	1684285	177.001388846315	11
vector 70 World.node[39].appl.middleware.ExampleService proof_size ETV
vector 71 World.node[39].appl.middleware.ExampleService proof_requested ETV
65	1744271	180.093794639525	30
64	1744271	180.093794639525	8
vector 72 World.node[37].appl.middleware.ExampleService proof_size ETV
vector 73 World.node[37].appl.middleware.ExampleService proof_requested ETV
35	497779	110.080394544126	22
35	1547208	170.080394544126	31
34	497779	110.080394544126	11
34	1547208	170.080394544126	13
15	101379	57.058840857446	12
15	575165	117.058840857446	21
15	1686482	177.058840857446	27
14	101379	57.058840857446	6
14	575165	117.058840857446	4
14	1686482	177.058840857446	8
vector 74 World.node[47].appl.middleware.ExampleService proof_size ETV
vector 75 World.node[47].appl.middleware.ExampleService proof_requested ETV
vector 76 World.node[44].appl.middleware.ExampleService proof_size ETV
vector 77 World.node[44].appl.middleware.ExampleService proof_requested ETV
vector 78 World.node[45].appl.middleware.ExampleService proof_size ETV
vector 79 World.node[45].appl.middleware.ExampleService proof_requested ETV
3	23034	34.087825622945	6
3	339965	94.087825622945	14
3	1222074	154.087825622945	27
2	23034	34.087825622945	4
2	339965	94.087825622945	5
2	1222074	154.087825622945	15
47	944803	140.034576383373	28
47	2233485	200.034576383373	26
46	944803	140.034576383373	6
46	2233485	200.034576383373	11
vector 80 World.node[42].appl.middleware.ExampleService proof_size ETV
vector 81 World.node[42].appl.middleware.ExampleService proof_requested ETV
vector 82 World.node[52].appl.middleware.ExampleService proof_size ETV
vector 83 World.node[52].appl.middleware.ExampleService proof_requested ETV
vector 84 World.node[54].appl.middleware.ExampleService proof_size ETV
vector 85 World.node[54].appl.middleware.ExampleService proof_requested ETV
vector 86 World.node[41].appl.middleware.ExampleService proof_size ETV
vector 87 World.node[41].appl.middleware.ExampleService proof_requested ETV
55	1412900	164.051427444071	30
55	2864990	224.051427444071	24
54	1412900	164.051427444071	12
54	2864990	224.051427444071	11
vector 88 World.node[51].appl.middleware.ExampleService proof_size ETV
vector 89 World.node[51].appl.middleware.ExampleService proof_requested ETV
61	1566854	171.090645210259	28
60	1566854	171.090645210259	16
vector 90 World.node[43].appl.middleware.ExampleService proof_size ETV
vector 91 World.node[43].appl.middleware.ExampleService proof_requested ETV
vector 92 World.node[53].appl.middleware.ExampleService proof_size ETV
vector 93 World.node[53].appl.middleware.ExampleService proof_requested ETV
59	1480338	167.089625389036	30
59	2972058	227.089625389036	32
58	1480338	167.089625389036	1
58	2972058	227.089625389036	16
vector 94 World.node[49].appl.middleware.ExampleService proof_size ETV
vector 95 World.node[49].appl.middleware.ExampleService proof_requested ETV
49	1118218	149.008568350412	29
49	2452672	209.008568350412	30
48	1118218	149.008568350412	4
48	2452672	209.008568350412	1
vector 96 World.node[46].appl.middleware.ExampleService proof_size ETV
vector 97 World.node[46].appl.middleware.ExampleService proof_requested ETV
29	347331	95.049241614807	18
29	1234508	155.049241614807	26
29	2616842	215.049241614807	24
28	347331	95.049241614807	7
28	1234508	155.049241614807	10
28	2616842	215.049241614807	6
93	3102258	231.042763622478	28
92	3102258	231.042763622478	12
vector 98 World.node[55].appl.middleware.ExampleService proof_size ETV
vector 99 World.node[55].appl.middleware.ExampleService proof_requested ETV
vector 100 World.node[57].appl.middleware.ExampleService proof_size ETV
vector 101 World.node[57].appl.middleware.ExampleService proof_requested ETV
vector 102 World.node[50].appl.middleware.ExampleService proof_size ETV
vector 103 World.node[50].appl.middleware.ExampleService proof_requested ETV
vector 104 World.node[48].appl.middleware.ExampleService proof_size ETV
vector 105 World.node[48].appl.middleware.ExampleService proof_requested ETV
53	1335823	160.044284015847	24
53	2759967	220.044284015847	32
52	1335823	160.044284015847	9
52	2759967	220.044284015847	16
67	1809873	183.032180888462	32
67	3456485	243.032180888462	34
66	1809873	183.032180888462	8
66	3456485	243.032180888462	16
vector 106 World.node[58].appl.middleware.ExampleService proof_size ETV
vector 107 World.node[58].appl.middleware.ExampleService proof_requested ETV
vector 108 World.node[59].appl.middleware.ExampleService proof_size ETV
vector 109 World.node[59].appl.middleware.ExampleService proof_requested ETV
vector 110 World.node[56].appl.middleware.ExampleService proof_size ETV
vector 111 World.node[56].appl.middleware.ExampleService proof_requested ETV
85	2687355	217.130045638909	18
84	2687355	217.130045638909	7
25	308697	91.008945412096	18
25	1153575	151.008945412096	29
25	2503389	211.008945412096	33
25	4247861	271.008945412096	37
24	308697	91.008945412096	7
24	1153575	151.008945412096	7
24	2503389	211.008945412096	19
24	4247861	271.008945412096	12
19	201604	76.086791846901	13
19	876305	136.086791846901	26
19	2137630	196.086791846901	32
19	3838587	256.086791846901	22
18	201604	76.086791846901	6
18	876305	136.086791846901	7
18	2137630	196.086791846901	6
18	3838587	256.086791846901	2
51	1298236	158.059861696558	29
51	2704807	218.059861696558	31
50	1298236	158.059861696558	16
50	2704807	218.059861696558	22
39	597171	119.042218270432	18
39	1720937	179.042218270432	30
39	3346411	239.042218270432	36
38	597171	119.042218270432	10
38	1720937	179.042218270432	7
38	3346411	239.042218270432	0
11	76141	52.043598487577	11
11	518206	112.043598487577	19
11	1583999	172.043598487577	24
11	3132956	232.043598487577	32
10	76141	52.043598487577	3
10	518206	112.043598487577	6
10	1583999	172.043598487577	8
10	3132956	232.043598487577	17
33	364794	97.009812316415	18
33	1278117	157.009812316415	28
33	2674876	217.009812316415	34
33	4454112	277.009812316415	33
32	364794	97.009812316415	7
32	1278117	157.009812316415	6
32	2674876	217.009812316415	19
32	4454112	277.009812316415	20
vector 112 World.node[66].appl.middleware.ExampleService proof_size ETV
vector 113 World.node[66].appl.middleware.ExampleService proof_requested ETV
vector 114 World.node[61].appl.middleware.ExampleService proof_size ETV
vector 115 World.node[61].appl.middleware.ExampleService proof_requested ETV
vector 116 World.node[60].appl.middleware.ExampleService proof_size ETV
vector 117 World.node[60].appl.middleware.ExampleService proof_requested ETV
57	1442082	165.094206960569	20
57	2914019	225.094206960569	21
57	4713422	285.094206960569	32
56	1442082	165.094206960569	6
56	2914019	225.094206960569	8
56	4713422	285.094206960569	10
vector 118 World.node[64].appl.middleware.ExampleService proof_size ETV
vector 119 World.node[64].appl.middleware.ExampleService proof_requested ETV
111	4196832	269.097160886507	37
110	4196832	269.097160886507	9
9	55707	47.078418978793	10
9	461701	107.078418978793	20
9	1478010	167.078418978793	31
9	2972054	227.078418978793	37
9	4776297	287.078418978793	32
8	55707	47.078418978793	4
8	461701	107.078418978793	5
8	1478010	167.078418978793	15
8	2972054	227.078418978793	28
8	4776297	287.078418978793	8
vector 120 World.node[62].appl.middleware.ExampleService proof_size ETV
vector 121 World.node[62].appl.middleware.ExampleService proof_requested ETV
vector 122 World.node[65].appl.middleware.ExampleService proof_size ETV
vector 123 World.node[65].appl.middleware.ExampleService proof_requested ETV
vector 124 World.node[71].appl.middleware.ExampleService proof_size ETV
vector 125 World.node[71].appl.middleware.ExampleService proof_requested ETV
71	1900273	186.044080341584	23
71	3550794	246.044080341584	32
71	5323961	306.044080341584	34
70	1900273	186.044080341584	12
70	3550794	246.044080341584	21
70	5323961	306.044080341584	0
vector 126 World.node[67].appl.middleware.ExampleService proof_size ETV
vector 127 World.node[67].appl.middleware.ExampleService proof_requested ETV
127	5629176	316.072817905573	28
126	5629176	316.072817905573	15
vector 128 World.node[76].appl.middleware.ExampleService proof_size ETV
vector 129 World.node[76].appl.middleware.ExampleService proof_requested ETV
vector 130 World.node[78].appl.middleware.ExampleService proof_size ETV
vector 131 World.node[78].appl.middleware.ExampleService proof_requested ETV
vector 132 World.node[69].appl.middleware.ExampleService proof_size ETV
vector 133 World.node[69].appl.middleware.ExampleService proof_requested ETV
101	3550789	246.039000809914	25
101	5323957	306.039000809914	33
100	3550789	246.039000809914	11
100	5323957	306.039000809914	16
69	1874165	185.056850419263	28
69	3521990	245.056850419263	33
69	5294016	305.056850419263	31
68	1874165	185.056850419263	17
68	3521990	245.056850419263	9
68	5294016	305.056850419263	9
vector 134 World.node[74].appl.middleware.ExampleService proof_size ETV
vector 135 World.node[74].appl.middleware.ExampleService proof_requested ETV
41	719075	127.035739619005	25
41	1929039	187.035739619005	33
41	3587866	247.035739619005	32
41	5360307	307.035739619005	23
40	719075	127.035739619005	7
40	1929039	187.035739619005	13
40	3587866	247.035739619005	15
40	5360307	307.035739619005	10
vector 136 World.node[72].appl.middleware.ExampleService proof_size ETV
vector 137 World.node[72].appl.middleware.ExampleService proof_requested ETV
vector 138 World.node[73].appl.middleware.ExampleService proof_size ETV
vector 139 World.node[73].appl.middleware.ExampleService proof_requested ETV
vector 140 World.node[70].appl.middleware.ExampleService proof_size ETV
vector 141 World.node[70].appl.middleware.ExampleService proof_requested ETV
83	2675384	217.021304171113	31
83	4455398	277.021304171113	36
83	6366231	337.021304171113	39
82	2675384	217.021304171113	5
82	4455398	277.021304171113	8
82	6366231	337.021304171113	13
vector 142 World.node[75].appl.middleware.ExampleService proof_size ETV
vector 143 World.node[75].appl.middleware.ExampleService proof_requested ETV
vector 144 World.node[86].appl.middleware.ExampleService proof_size ETV
vector 145 World.node[86].appl.middleware.ExampleService proof_requested ETV
73	1969494	189.024234700389	31
73	3649618	249.024234700389	35
73	5420994	309.024234700389	25
72	1969494	189.024234700389	0
72	3649618	249.024234700389	7
72	5420994	309.024234700389	14
91	3068429	230.012485762942	20
91	4854440	290.012485762942	34
91	6912808	350.012485762942	41
90	3068429	230.012485762942	8
90	4854440	290.012485762942	22
90	6912808	350.012485762942	22
vector 146 World.node[87].appl.middleware.ExampleService proof_size ETV
vector 147 World.node[87].appl.middleware.ExampleService proof_requested ETV
107	4094976	265.031972512603	37
107	5940465	325.031972512603	22
106	4094976	265.031972512603	13
106	5940465	325.031972512603	6
31	355575	96.006674804725	16
31	1257741	156.006674804725	27
31	2646112	216.006674804725	29
31	4420109	276.006674804725	37
31	6323411	336.006674804725	40
30	355575	96.006674804725	5
30	1257741	156.006674804725	13
30	2646112	216.006674804725	6
30	4420109	276.006674804725	10
30	6323411	336.006674804725	12
109	4115676	266.064562696824	37
109	5970130	326.064562696824	38
108	4115676	266.064562696824	14
108	5970130	326.064562696824	23
75	2235758	200.063984042802	22
75	3950812	260.063984042802	36
75	5762689	320.063984042802	38
74	2235758	200.063984042802	9
74	3950812	260.063984042802	7
74	5762689	320.063984042802	11
vector 148 World.node[90].appl.middleware.ExampleService proof_size ETV
vector 149 World.node[90].appl.middleware.ExampleService proof_requested ETV
vector 150 World.node[88].appl.middleware.ExampleService proof_size ETV
vector 151 World.node[88].appl.middleware.ExampleService proof_requested ETV
95	3344487	239.024395681592	31
95	5117775	299.024395681592	33
95	7236045	359.024395681592	42
94	3344487	239.024395681592	8
94	5117775	299.024395681592	7
94	7236045	359.024395681592	14
vector 152 World.node[82].appl.middleware.ExampleService proof_size ETV
vector 153 World.node[82].appl.middleware.ExampleService proof_requested ETV
vector 154 World.node[80].appl.middleware.ExampleService proof_size ETV
vector 155 World.node[80].appl.middleware.ExampleService proof_requested ETV
vector 156 World.node[91].appl.middleware.ExampleService proof_size ETV
vector 157 World.node[91].appl.middleware.ExampleService proof_requested ETV
vector 158 World.node[85].appl.middleware.ExampleService proof_size ETV
vector 159 World.node[85].appl.middleware.ExampleService proof_requested ETV
99	3459374	243.063796279929	36
99	5236641	303.063796279929	34
99	7390502	363.063796279929	39
98	3459374	243.063796279929	0
98	5236641	303.063796279929	17
98	7390502	363.063796279929	14
vector 160 World.node[77].appl.middleware.ExampleService proof_size ETV
vector 161 World.node[77].appl.middleware.ExampleService proof_requested ETV
87	2810641	222.033434145339	20
87	4619122	282.033434145339	32
87	6582726	342.033434145339	41
86	2810641	222.033434145339	9
86	4619122	282.033434145339	13
86	6582726	342.033434145339	13
vector 162 World.node[84].appl.middleware.ExampleService proof_size ETV
vector 163 World.node[84].appl.middleware.ExampleService proof_requested ETV
vector 164 World.node[96].appl.middleware.ExampleService proof_size ETV
vector 165 World.node[96].appl.middleware.ExampleService proof_requested ETV
63	1707710	178.05535413695	27
63	3321617	238.05535413695	30
63	5100584	298.05535413695	34
63	7214048	358.05535413695	40
62	1707710	178.05535413695	8
62	3321617	238.05535413695	17
62	5100584	298.05535413695	1
62	7214048	358.05535413695	0
117	4673965	284.030023407936	35
117	6666183	344.030023407936	39
116	4673965	284.030023407936	7
116	6666183	344.030023407936	0
81	2552498	213.018041500566	20
81	4311700	273.018041500566	33
81	6208744	333.018041500566	40
80	2552498	213.018041500566	7
80	4311700	273.018041500566	11
80	6208744	333.018041500566	14
vector 166 World.node[81].appl.middleware.ExampleService proof_size ETV
vector 167 World.node[81].appl.middleware.ExampleService proof_requested ETV
vector 168 World.node[83].appl.middleware.ExampleService proof_size ETV
vector 169 World.node[83].appl.middleware.ExampleService proof_requested ETV
vector 170 World.node[89].appl.middleware.ExampleService proof_size ETV
vector 171 World.node[89].appl.middleware.ExampleService proof_requested ETV
vector 172 World.node[92].appl.middleware.ExampleService proof_size ETV
vector 173 World.node[92].appl.middleware.ExampleService proof_requested ETV
137	6710037	345.071050836891	38
136	6710037	345.071050836891	18
45	747443	129.020839908812	24
45	1969267	189.020839908812	31
45	3649366	249.020839908812	35
45	5420483	309.020839908812	36
45	7643177	369.020839908812	37
44	747443	129.020839908812	12
44	1969267	189.020839908812	9
44	3649366	249.020839908812	11
44	5420483	309.020839908812	11
44	7643177	369.020839908812	17
97	3376892	240.039140413189	32
97	5148974	300.039140413189	29
97	7274688	360.039140413189	39
96	3376892	240.039140413189	16
96	5148974	300.039140413189	13
96	7274688	360.039140413189	14
89	3006638	228.059621361969	28
89	4807015	288.059621361969	33
89	6839367	348.059621361969	41
89	9265648	408.059621361969	43
88	3006638	228.059621361969	15
88	4807015	288.059621361969	19
88	6839367	348.059621361969	20
88	9265648	408.059621361969	5
vector 174 World.node[93].appl.middleware.ExampleService proof_size ETV
vector 175 World.node[93].appl.middleware.ExampleService proof_requested ETV
167	8395652	387.00323847062	41
166	8395652	387.00323847062	9
vector 176 World.node[102].appl.middleware.ExampleService proof_size ETV
vector 177 World.node[102].appl.middleware.ExampleService proof_requested ETV
vector 178 World.node[94].appl.middleware.ExampleService proof_size ETV
vector 179 World.node[94].appl.middleware.ExampleService proof_requested ETV
131	5762169	320.057095540082	24
131	8111973	380.057095540082	40
130	5762169	320.057095540082	5
130	8111973	380.057095540082	13
vector 180 World.node[104].appl.middleware.ExampleService proof_size ETV
vector 181 World.node[104].appl.middleware.ExampleService proof_requested ETV
vector 182 World.node[98].appl.middleware.ExampleService proof_size ETV
vector 183 World.node[98].appl.middleware.ExampleService proof_requested ETV
vector 184 World.node[100].appl.middleware.ExampleService proof_size ETV
vector 185 World.node[100].appl.middleware.ExampleService proof_requested ETV
vector 186 World.node[106].appl.middleware.ExampleService proof_size ETV
vector 187 World.node[106].appl.middleware.ExampleService proof_requested ETV
vector 188 World.node[95].appl.middleware.ExampleService proof_size ETV
vector 189 World.node[95].appl.middleware.ExampleService proof_requested ETV
77	2286538	202.010761212977	28
77	4007164	262.010761212977	36
77	5823875	322.010761212977	34
77	8198588	382.010761212977	42
76	2286538	202.010761212977	7
76	4007164	262.010761212977	7
76	5823875	322.010761212977	3
76	8198588	382.010761212977	11
123	5200490	302.032925258181	33
123	7340670	362.032925258181	41
123	9871023	422.032925258181	38
122	5200490	302.032925258181	9
122	7340670	362.032925258181	11
122	9871023	422.032925258181	2
vector 190 World.node[97].appl.middleware.ExampleService proof_size ETV
vector 191 World.node[97].appl.middleware.ExampleService proof_requested ETV
vector 192 World.node[101].appl.middleware.ExampleService proof_size ETV
vector 193 World.node[101].appl.middleware.ExampleService proof_requested ETV
vector 194 World.node[99].appl.middleware.ExampleService proof_size ETV
vector 195 World.node[99].appl.middleware.ExampleService proof_requested ETV
113	4585099	281.052050189604	32
113	6542090	341.052050189604	40
113	8994119	401.052050189604	44
112	4585099	281.052050189604	9
112	6542090	341.052050189604	11
112	8994119	401.052050189604	14
vector 196 World.node[103].appl.middleware.ExampleService proof_size ETV
vector 197 World.node[103].appl.middleware.ExampleService proof_requested ETV
115	4672261	284.015544928401	36
115	6663860	344.015544928401	40
115	9109500	404.015544928401	44
114	4672261	284.015544928401	4
114	6663860	344.015544928401	9
114	9109500	404.015544928401	9
135	6632539	343.051616792474	42
135	9081912	403.051616792474	44
134	6632539	343.051616792474	12
134	9081912	403.051616792474	16
vector 198 World.node[109].appl.middleware.ExampleService proof_size ETV
vector 199 World.node[109].appl.middleware.ExampleService proof_requested ETV
181	9867946	422.007607488683	38
180	9867946	422.007607488683	9
129	5735141	319.016162785818	36
129	8070178	379.016162785818	39
129	10700682	439.016162785818	46
128	5735141	319.016162785818	17
128	8070178	379.016162785818	1
128	10700682	439.016162785818	0
vector 200 World.node[108].appl.middleware.ExampleService proof_size ETV
vector 201 World.node[108].appl.middleware.ExampleService proof_requested ETV
143	6961617	351.008806981915	41
143	9398491	411.008806981915	43
142	6961617	351.008806981915	1
142	9398491	411.008806981915	10
vector 202 World.node[119].appl.middleware.ExampleService proof_size ETV
vector 203 World.node[119].appl.middleware.ExampleService proof_requested ETV
vector 204 World.node[117].appl.middleware.ExampleService proof_size ETV
vector 205 World.node[117].appl.middleware.ExampleService proof_requested ETV
vector 206 World.node[105].appl.middleware.ExampleService proof_size ETV
vector 207 World.node[105].appl.middleware.ExampleService proof_requested ETV
119	4802219	288.008327701362	31
119	6832364	348.008327701362	37
119	9256673	408.008327701362	41
118	4802219	288.008327701362	24
118	6832364	348.008327701362	19
118	9256673	408.008327701362	9
125	5565094	314.019079531892	37
125	7841341	374.019079531892	40
125	10470685	434.019079531892	45
124	5565094	314.019079531892	6
124	7841341	374.019079531892	20
124	10470685	434.019079531892	16
vector 208 World.node[116].appl.middleware.ExampleService proof_size ETV
vector 209 World.node[116].appl.middleware.ExampleService proof_requested ETV
159	7551095	367.033554464299	21
159	10128183	427.033554464299	40
158	7551095	367.033554464299	12
158	10128183	427.033554464299	15
133	5944055	325.085248043807	34
133	8331519	385.085248043807	41
133	10989129	445.085248043807	42
132	5944055	325.085248043807	14
132	8331519	385.085248043807	5
132	10989129	445.085248043807	6
105	3701518	251.033545335592	30
105	5477660	311.033545335592	34
105	7718473	371.033545335592	39
105	10335452	431.033545335592	32
104	3701518	251.033545335592	12
104	5477660	311.033545335592	10
104	7718473	371.033545335592	21
104	10335452	431.033545335592	2
169	8522500	390.011621047882	39
169	11196451	450.011621047882	48
168	8522500	390.011621047882	13
168	11196451	450.011621047882	11
179	9832811	421.023060377385	35
178	9832811	421.023060377385	11
vector 210 World.node[114].appl.middleware.ExampleService proof_size ETV
vector 211 World.node[114].appl.middleware.ExampleService proof_requested ETV
vector 212 World.node[107].appl.middleware.ExampleService proof_size ETV
vector 213 World.node[107].appl.middleware.ExampleService proof_requested ETV
vector 214 World.node[115].appl.middleware.ExampleService proof_size ETV
vector 215 World.node[115].appl.middleware.ExampleService proof_requested ETV
vector 216 World.node[113].appl.middleware.ExampleService proof_size ETV
vector 217 World.node[113].appl.middleware.ExampleService proof_requested ETV
vector 218 World.node[120].appl.middleware.ExampleService proof_size ETV
vector 219 World.node[120].appl.middleware.ExampleService proof_requested ETV
vector 220 World.node[111].appl.middleware.ExampleService proof_size ETV
vector 221 World.node[111].appl.middleware.ExampleService proof_requested ETV
vector 222 World.node[110].appl.middleware.ExampleService proof_size ETV
vector 223 World.node[110].appl.middleware.ExampleService proof_requested ETV
197	11020734	446.035654673539	42
196	11020734	446.035654673539	16
207	11946329	463.079409852764	46
206	11946329	463.079409852764	19
221	13010229	484.082087538764	30
220	13010229	484.082087538764	7
vector 224 World.node[112].appl.middleware.ExampleService proof_size ETV
vector 225 World.node[112].appl.middleware.ExampleService proof_requested ETV
103	3681164	250.088872010075	34
103	5454290	310.088872010075	35
103	7689952	370.088872010075	40
103	10297143	430.088872010075	45
103	13269581	490.088872010075	45
102	3681164	250.088872010075	16
102	5454290	310.088872010075	16
102	7689952	370.088872010075	0
102	10297143	430.088872010075	17
102	13269581	490.088872010075	0
vector 226 World.node[125].appl.middleware.ExampleService proof_size ETV
vector 227 World.node[125].appl.middleware.ExampleService proof_requested ETV
201	11735291	460.031496675359	40
200	11735291	460.031496675359	17
vector 228 World.node[123].appl.middleware.ExampleService proof_size ETV
vector 229 World.node[123].appl.middleware.ExampleService proof_requested ETV
147	7030368	353.059789160104	42
147	9480260	413.059789160104	40
147	12456718	473.059789160104	44
146	7030368	353.059789160104	9
146	9480260	413.059789160104	9
146	12456718	473.059789160104	30
vector 230 World.node[126].appl.middleware.ExampleService proof_size ETV
vector 231 World.node[126].appl.middleware.ExampleService proof_requested ETV
151	7422412	364.004027332226	38
151	9980758	424.004027332226	44
151	13001964	484.004027332226	30
150	7422412	364.004027332226	5
150	9980758	424.004027332226	4
150	13001964	484.004027332226	4
193	10700001	439.012358166394	40
193	13599200	499.012358166394	28
192	10700001	439.012358166394	2
192	13599200	499.012358166394	8
vector 232 World.node[127].appl.middleware.ExampleService proof_size ETV
vector 233 World.node[127].appl.middleware.ExampleService proof_requested ETV
139	6711119	345.076713030855	35
139	9156317	405.076713030855	44
139	12054570	465.076713030855	44
138	6711119	345.076713030855	1
138	9156317	405.076713030855	13
138	12054570	465.076713030855	35
vector 234 World.node[129].appl.middleware.ExampleService proof_size ETV
vector 235 World.node[129].appl.middleware.ExampleService proof_requested ETV
225	13330794	492.026875631511	28
224	13330794	492.026875631511	13
vector 236 World.node[124].appl.middleware.ExampleService proof_size ETV
vector 237 World.node[124].appl.middleware.ExampleService proof_requested ETV
vector 238 World.node[118].appl.middleware.ExampleService proof_size ETV
vector 239 World.node[118].appl.middleware.ExampleService proof_requested ETV
vector 240 World.node[128].appl.middleware.ExampleService proof_size ETV
vector 241 World.node[128].appl.middleware.ExampleService proof_requested ETV
153	7467952	365.065759401536	38
153	10031340	425.065759401536	38
153	13042527	485.065759401536	29
152	7467952	365.065759401536	21
152	10031340	425.065759401536	25
152	13042527	485.065759401536	13
213	12572163	475.094917991175	32
212	12572163	475.094917991175	0
vector 242 World.node[132].appl.middleware.ExampleService proof_size ETV
vector 243 World.node[132].appl.middleware.ExampleService proof_requested ETV
121	5098421	298.024964376562	34
121	7212590	358.024964376562	40
121	9704268	418.024964376562	37
121	12707980	478.024964376562	34
120	5098421	298.024964376562	8
120	7212590	358.024964376562	15
120	9704268	418.024964376562	13
120	12707980	478.024964376562	11
161	7682517	370.018133906997	39
161	10289766	430.018133906997	43
161	13265028	490.018133906997	42
160	7682517	370.018133906997	20
160	10289766	430.018133906997	12
160	13265028	490.018133906997	12
vector 244 World.node[122].appl.middleware.ExampleService proof_size ETV
vector 245 World.node[122].appl.middleware.ExampleService proof_requested ETV
vector 246 World.node[121].appl.middleware.ExampleService proof_size ETV
vector 247 World.node[121].appl.middleware.ExampleService proof_requested ETV
vector 248 World.node[133].appl.middleware.ExampleService proof_size ETV
vector 249 World.node[133].appl.middleware.ExampleService proof_requested ETV
239	14107465	512.090241292166	35
238	14107465	512.090241292166	7
247	14665618	527.044930934487	32
246	14665618	527.044930934487	7
79	2331652	204.028348132037	29
79	4069547	264.028348132037	37
79	5906370	324.028348132037	34
79	8288033	384.028348132037	43
79	10943597	444.028348132037	46
79	13787763	504.028348132037	32
78	2331652	204.028348132037	17
78	4069547	264.028348132037	14
78	5906370	324.028348132037	16
78	8288033	384.028348132037	17
78	10943597	444.028348132037	14
78	13787763	504.028348132037	21
vector 250 World.node[130].appl.middleware.ExampleService proof_size ETV
vector 251 World.node[130].appl.middleware.ExampleService proof_requested ETV
187	10297244	430.088918866985	45
187	13269676	490.088918866985	40
186	10297244	430.088918866985	18
186	13269676	490.088918866985	0
237	14063988	511.0131416691	39
236	14063988	511.0131416691	10
145	6961620	351.010955298087	41
145	9399182	411.010955298087	34
145	12360302	471.010955298087	46
145	14818427	531.010955298087	41
144	6961620	351.010955298087	22
144	9399182	411.010955298087	6
144	12360302	471.010955298087	25
144	14818427	531.010955298087	15
171	8668663	393.081388932979	43
171	11358305	453.081388932979	49
171	14144889	513.081388932979	39
170	8668663	393.081388932979	20
170	11358305	453.081388932979	13
170	14144889	513.081388932979	16
177	9753227	419.087026485731	43
177	12759585	479.087026485731	44
177	15092835	539.087026485731	37
176	9753227	419.087026485731	19
176	12759585	479.087026485731	12
176	15092835	539.087026485731	8
157	7511507	366.072250472568	15
157	10084896	426.072250472568	42
157	13095077	486.072250472568	38
157	15335772	546.072250472568	34
156	7511507	366.072250472568	5
156	10084896	426.072250472568	16
156	13095077	486.072250472568	14
156	15335772	546.072250472568	0
vector 252 World.node[134].appl.middleware.ExampleService proof_size ETV
vector 253 World.node[134].appl.middleware.ExampleService proof_requested ETV
vector 254 World.node[140].appl.middleware.ExampleService proof_size ETV
vector 255 World.node[140].appl.middleware.ExampleService proof_requested ETV
245	14636786	526.058161356021	34
244	14636786	526.058161356021	10
203	11862275	462.018608383974	27
203	14482967	522.018608383974	38
202	11862275	462.018608383974	9
202	14482967	522.018608383974	19
vector 256 World.node[135].appl.middleware.ExampleService proof_size ETV
vector 257 World.node[135].appl.middleware.ExampleService proof_requested ETV
155	7469047	365.07974291821	38
155	10032940	425.07974291821	40
155	13043157	485.07974291821	36
155	15293662	545.07974291821	38
154	7469047	365.07974291821	2
154	10032940	425.07974291821	13
154	13043157	485.07974291821	15
154	15293662	545.07974291821	14
vector 258 World.node[141].appl.middleware.ExampleService proof_size ETV
vector 259 World.node[141].appl.middleware.ExampleService proof_requested ETV
vector 260 World.node[136].appl.middleware.ExampleService proof_size ETV
vector 261 World.node[136].appl.middleware.ExampleService proof_requested ETV
185	10195209	428.072833957826	45
185	13178740	488.072833957826	44
185	15403315	548.072833957826	38
184	10195209	428.072833957826	12
184	13178740	488.072833957826	12
184	15403315	548.072833957826	13
vector 262 World.node[131].appl.middleware.ExampleService proof_size ETV
vector 263 World.node[131].appl.middleware.ExampleService proof_requested ETV
233	13788330	504.035765742743	27
233	15975614	564.035765742743	32
232	13788330	504.035765742743	12
232	15975614	564.035765742743	7
231	13640295	500.071300121094	33
231	15852560	560.071300121094	39
230	13640295	500.071300121094	10
230	15852560	560.071300121094	9
vector 264 World.node[137].appl.middleware.ExampleService proof_size ETV
vector 265 World.node[137].appl.middleware.ExampleService proof_requested ETV
205	11945314	463.061752547696	49
205	14525468	523.061752547696	42
204	11945314	463.061752547696	28
204	14525468	523.061752547696	8
vector 266 World.node[138].appl.middleware.ExampleService proof_size ETV
vector 267 World.node[138].appl.middleware.ExampleService proof_requested ETV
257	15770531	558.048804368498	39
256	15770531	558.048804368498	0
vector 268 World.node[144].appl.middleware.ExampleService proof_size ETV
vector 269 World.node[144].appl.middleware.ExampleService proof_requested ETV
vector 270 World.node[148].appl.middleware.ExampleService proof_size ETV
vector 271 World.node[148].appl.middleware.ExampleService proof_requested ETV
vector 272 World.node[139].appl.middleware.ExampleService proof_size ETV
vector 273 World.node[139].appl.middleware.ExampleService proof_requested ETV
223	13091921	486.027396094776	39
223	15332401	546.027396094776	36
222	13091921	486.027396094776	0
222	15332401	546.027396094776	18
vector 274 World.node[142].appl.middleware.ExampleService proof_size ETV
vector 275 World.node[142].appl.middleware.ExampleService proof_requested ETV
vector 276 World.node[151].appl.middleware.ExampleService proof_size ETV
vector 277 World.node[151].appl.middleware.ExampleService proof_requested ETV
163	8027735	378.045012159878	38
163	10664256	438.045012159878	43
163	13570173	498.045012159878	27
163	15769969	558.045012159878	35
162	8027735	378.045012159878	12
162	10664256	438.045012159878	18
162	13570173	498.045012159878	7
162	15769969	558.045012159878	13
195	10842212	442.017712146626	42
195	13717676	502.017712146626	39
195	15915255	562.017712146626	30
194	10842212	442.017712146626	7
194	13717676	502.017712146626	13
194	15915255	562.017712146626	14
149	7273025	360.021093294187	31
149	9786831	420.021093294187	38
149	12799376	480.021093294187	42
149	15118419	540.021093294187	38
149	17297271	600.021093294187	19
148	7273025	360.021093294187	11
148	9786831	420.021093294187	14
148	12799376	480.021093294187	21
148	15118419	540.021093294187	14
148	17297271	600.021093294187	14
vector 278 World.node[149].appl.middleware.ExampleService proof_size ETV
vector 279 World.node[149].appl.middleware.ExampleService proof_requested ETV
vector 280 World.node[150].appl.middleware.ExampleService proof_size ETV
vector 281 World.node[150].appl.middleware.ExampleService proof_requested ETV
219	12843789	481.031019206019	40
219	15145157	541.031019206019	39
219	17338508	601.031019206019	20
218	12843789	481.031019206019	18
218	15145157	541.031019206019	15
218	17338508	601.031019206019	10
277	17132619	596.027003821684	27
276	17132619	596.027003821684	14
175	9472856	413.006059438642	44
175	12448900	473.006059438642	44
175	14885397	533.006059438642	41
175	16983960	593.006059438642	37
174	9472856	413.006059438642	8
174	12448900	473.006059438642	27
174	14885397	533.006059438642	16
174	16983960	593.006059438642	5
vector 282 World.node[143].appl.middleware.ExampleService proof_size ETV
vector 283 World.node[143].appl.middleware.ExampleService proof_requested ETV
165	8062575	379.007949408074	41
165	10699318	439.007949408074	45
165	13598008	499.007949408074	38
165	15805480	559.007949408074	36
164	8062575	379.007949408074	5
164	10699318	439.007949408074	4
164	13598008	499.007949408074	8
164	15805480	559.007949408074	6
191	10616999	437.01056322467	44
191	13529372	497.01056322467	43
191	15727266	557.01056322467	36
190	10616999	437.01056322467	14
190	13529372	497.01056322467	11
190	15727266	557.01056322467	18
189	10390316	432.051291850558	38
189	13332605	492.051291850558	39
189	15546018	552.051291850558	38
188	10390316	432.051291850558	17
188	13332605	492.051291850558	14
188	15546018	552.051291850558	17
vector 284 World.node[145].appl.middleware.ExampleService proof_size ETV
vector 285 World.node[145].appl.middleware.ExampleService proof_requested ETV
183	10079572	426.020064269006	41
183	13091303	486.020064269006	40
183	15331829	546.020064269006	34
183	17552711	606.020064269006	42
182	10079572	426.020064269006	12
182	13091303	486.020064269006	22
182	15331829	546.020064269006	15
182	17552711	606.020064269006	23
vector 286 World.node[155].appl.middleware.ExampleService proof_size ETV
vector 287 World.node[155].appl.middleware.ExampleService proof_requested ETV
209	12052276	465.038618855621	44
209	14603753	525.038618855621	42
209	16676240	585.038618855621	36
208	12052276	465.038618855621	17
208	14603753	525.038618855621	13
208	16676240	585.038618855621	16
281	17518688	605.079103053128	36
280	17518688	605.079103053128	23
251	15021161	537.003851215309	37
251	17169335	597.003851215309	38
250	15021161	537.003851215309	14
250	17169335	597.003851215309	25
vector 288 World.node[146].appl.middleware.ExampleService proof_size ETV
vector 289 World.node[146].appl.middleware.ExampleService proof_requested ETV
vector 290 World.node[153].appl.middleware.ExampleService proof_size ETV
vector 291 World.node[153].appl.middleware.ExampleService proof_requested ETV
235	13947542	508.103293901985	24
235	16103781	568.003293901985	36
235	18173686	628.003293901985	34
234	13947542	508.103293901985	4
234	16103781	568.003293901985	2
234	18173686	628.003293901985	15
vector 292 World.node[160].appl.middleware.ExampleService proof_size ETV
vector 293 World.node[160].appl.middleware.ExampleService proof_requested ETV
vector 294 World.node[147].appl.middleware.ExampleService proof_size ETV
vector 295 World.node[147].appl.middleware.ExampleService proof_requested ETV
173	8706454	394.036389610753	38
173	11408479	454.036389610753	43
173	14178157	514.036389610753	39
173	16319232	574.036389610753	38
172	8706454	394.036389610753	17
172	11408479	454.036389610753	18
172	14178157	514.036389610753	2
172	16319232	574.036389610753	11
249	14863431	532.084899580549	40
249	16947336	592.084899580549	36
248	14863431	532.084899580549	13
248	16947336	592.084899580549	14
vector 296 World.node[158].appl.middleware.ExampleService proof_size ETV
vector 297 World.node[158].appl.middleware.ExampleService proof_requested ETV
141	6757214	346.042796521448	38
141	9193383	406.042796521448	37
141	12099834	466.042796521448	48
141	14635611	526.042796521448	34
141	16706423	586.042796521448	26
140	6757214	346.042796521448	18
140	9193383	406.042796521448	2
140	12099834	466.042796521448	17
140	14635611	526.042796521448	9
140	16706423	586.042796521448	1
vector 298 World.node[156].appl.middleware.ExampleService proof_size ETV
vector 299 World.node[156].appl.middleware.ExampleService proof_requested ETV
vector 300 World.node[152].appl.middleware.ExampleService proof_size ETV
vector 301 World.node[152].appl.middleware.ExampleService proof_requested ETV
vector 302 World.node[161].appl.middleware.ExampleService proof_size ETV
vector 303 World.node[161].appl.middleware.ExampleService proof_requested ETV
271	16948448	592.093876184127	40
271	18893782	652.093876184127	33
270	16948448	592.093876184127	7
270	18893782	652.093876184127	5
217	12659170	477.026442653406	41
217	15027382	537.026442653406	38
217	17173487	597.026442653406	38
216	12659170	477.026442653406	18
216	15027382	537.026442653406	0
216	17173487	597.026442653406	17
vector 304 World.node[157].appl.middleware.ExampleService proof_size ETV
vector 305 World.node[157].appl.middleware.ExampleService proof_requested ETV
vector 306 World.node[168].appl.middleware.ExampleService proof_size ETV
vector 307 World.node[168].appl.middleware.ExampleService proof_requested ETV
259	15880835	561.014775019558	38
259	18016632	621.014775019558	32
258	15880835	561.014775019558	19
258	18016632	621.014775019558	12
vector 308 World.node[162].appl.middleware.ExampleService proof_size ETV
vector 309 World.node[162].appl.middleware.ExampleService proof_requested ETV
vector 310 World.node[164].appl.middleware.ExampleService proof_size ETV
vector 311 World.node[164].appl.middleware.ExampleService proof_requested ETV
vector 312 World.node[159].appl.middleware.ExampleService proof_size ETV
vector 313 World.node[159].appl.middleware.ExampleService proof_requested ETV
vector 314 World.node[171].appl.middleware.ExampleService proof_size ETV
vector 315 World.node[171].appl.middleware.ExampleService proof_requested ETV
vector 316 World.node[163].appl.middleware.ExampleService proof_size ETV
vector 317 World.node[163].appl.middleware.ExampleService proof_requested ETV
303	18844308	651.001970562572	35
302	18844308	651.001970562572	14
241	14214924	515.076553589525	38
241	16349297	575.076553589525	31
241	18371014	635.076553589525	36
240	14214924	515.076553589525	13
240	16349297	575.076553589525	18
240	18371014	635.076553589525	14
273	17055007	594.093860120676	34
273	18971336	654.093860120676	37
272	17055007	594.093860120676	8
272	18971336	654.093860120676	9
vector 318 World.node[169].appl.middleware.ExampleService proof_size ETV
vector 319 World.node[169].appl.middleware.ExampleService proof_requested ETV
vector 320 World.node[166].appl.middleware.ExampleService proof_size ETV
vector 321 World.node[166].appl.middleware.ExampleService proof_requested ETV
vector 322 World.node[165].appl.middleware.ExampleService proof_size ETV
vector 323 World.node[165].appl.middleware.ExampleService proof_requested ETV
229	13492565	496.009014325542	41
229	15698073	556.009014325542	36
229	17887429	616.009014325542	30
229	19679993	676.009014325542	29
228	13492565	496.009014325542	9
228	15698073	556.009014325542	6
228	17887429	616.009014325542	0
228	19679993	676.009014325542	4
211	12556929	475.00811653221	27
211	14959660	535.00811653221	41
211	17093422	595.00811653221	36
211	18995002	655.00811653221	37
210	12556929	475.00811653221	16
210	14959660	535.00811653221	10
210	17093422	595.00811653221	19
210	18995002	655.00811653221	4
vector 324 World.node[167].appl.middleware.ExampleService proof_size ETV
vector 325 World.node[167].appl.middleware.ExampleService proof_requested ETV
265	16385543	576.075455382955	34
265	18399778	636.075455382955	34
264	16385543	576.075455382955	9
264	18399778	636.075455382955	12
vector 326 World.node[172].appl.middleware.ExampleService proof_size ETV
vector 327 World.node[172].appl.middleware.ExampleService proof_requested ETV
301	18748806	648.068926237756	32
300	18748806	648.068926237756	11
227	13454234	495.047789281141	33
227	15663144	555.047789281141	38
227	17865055	615.047789281141	36
227	19653333	675.047789281141	37
226	13454234	495.047789281141	8
226	15663144	555.047789281141	13
226	17865055	615.047789281141	11
226	19653333	675.047789281141	10
295	18272720	632.061937133432	34
295	20344609	692.061937133432	43
294	18272720	632.061937133432	7
294	20344609	692.061937133432	15
299	18691026	646.028815240203	32
298	18691026	646.028815240203	10
vector 328 World.node[180].appl.middleware.ExampleService proof_size ETV
vector 329 World.node[180].appl.middleware.ExampleService proof_requested ETV
313	19342299	666.025800621812	37
312	19342299	666.025800621812	10
vector 330 World.node[170].appl.middleware.ExampleService proof_size ETV
vector 331 World.node[170].appl.middleware.ExampleService proof_requested ETV
291	18199062	629.031260062195	32
291	20211365	689.031260062195	42
290	18199062	629.031260062195	9
290	20211365	689.031260062195	13
253	15546300	552.053485908872	39
253	17782885	612.053485908872	27
253	19552977	672.053485908872	39
252	15546300	552.053485908872	4
252	17782885	612.053485908872	13
252	19552977	672.053485908872	3
vector 332 World.node[176].appl.middleware.ExampleService proof_size ETV
vector 333 World.node[176].appl.middleware.ExampleService proof_requested ETV
vector 334 World.node[174].appl.middleware.ExampleService proof_size ETV
vector 335 World.node[174].appl.middleware.ExampleService proof_requested ETV
199	11253753	451.040299094585	44
199	14068192	511.040299094585	39
199	16211422	571.040299094585	33
199	18249405	631.040299094585	35
199	20305828	691.040299094585	41
198	11253753	451.040299094585	11
198	14068192	511.040299094585	3
198	16211422	571.040299094585	16
198	18249405	631.040299094585	9
198	20305828	691.040299094585	13
vector 336 World.node[173].appl.middleware.ExampleService proof_size ETV
vector 337 World.node[173].appl.middleware.ExampleService proof_requested ETV
261	15920157	562.068216728722	19
261	18040437	622.068216728722	34
261	19910966	682.068216728722	36
260	15920157	562.068216728722	12
260	18040437	622.068216728722	12
260	19910966	682.068216728722	20
vector 338 World.node[179].appl.middleware.ExampleService proof_size ETV
vector 339 World.node[179].appl.middleware.ExampleService proof_requested ETV
vector 340 World.node[177].appl.middleware.ExampleService proof_size ETV
vector 341 World.node[177].appl.middleware.ExampleService proof_requested ETV
275	17098114	595.047604455403	37
275	18997123	655.047604455403	37
275	21162211	715.047604455403	29
274	17098114	595.047604455403	22
274	18997123	655.047604455403	0
274	21162211	715.047604455403	12
vector 342 World.node[187].appl.middleware.ExampleService proof_size ETV
vector 343 World.node[187].appl.middleware.ExampleService proof_requested ETV
307	19020449	656.035118151829	34
307	21182272	716.035118151829	33
306	19020449	656.035118151829	7
306	21182272	716.035118151829	1
vector 344 World.node[182].appl.middleware.ExampleService proof_size ETV
vector 345 World.node[182].appl.middleware.ExampleService proof_requested ETV
vector 346 World.node[186].appl.middleware.ExampleService proof_size ETV
vector 347 World.node[186].appl.middleware.ExampleService proof_requested ETV
267	16648239	584.082186068641	26
267	18633910	644.082186068641	34
267	20809692	704.082186068641	39
266	16648239	584.082186068641	5
266	18633910	644.082186068641	12
266	20809692	704.082186068641	5
vector 348 World.node[175].appl.middleware.ExampleService proof_size ETV
vector 349 World.node[175].appl.middleware.ExampleService proof_requested ETV
vector 350 World.node[178].appl.middleware.ExampleService proof_size ETV
vector 351 World.node[178].appl.middleware.ExampleService proof_requested ETV
vector 352 World.node[185].appl.middleware.ExampleService proof_size ETV
vector 353 World.node[185].appl.middleware.ExampleService proof_requested ETV
255	15585199	553.062653605407	33
255	17814845	613.062653605407	35
255	19589715	673.062653605407	37
255	21829245	733.062653605407	16
254	15585199	553.062653605407	8
254	17814845	613.062653605407	21
254	19589715	673.062653605407	16
254	21829245	733.062653605407	10
vector 354 World.node[181].appl.middleware.ExampleService proof_size ETV
vector 355 World.node[181].appl.middleware.ExampleService proof_requested ETV
289	18180138	628.060293464921	35
289	20172879	688.060293464921	41
288	18180138	628.060293464921	6
288	20172879	688.060293464921	33
vector 356 World.node[184].appl.middleware.ExampleService proof_size ETV
vector 357 World.node[184].appl.middleware.ExampleService proof_requested ETV
vector 358 World.node[190].appl.middleware.ExampleService proof_size ETV
vector 359 World.node[190].appl.middleware.ExampleService proof_requested ETV
215	12606233	476.084706770349	43
215	14989671	536.084706770349	38
215	17138598	596.084706770349	38
215	19024777	656.084706770349	36
215	21185690	716.084706770349	30
214	12606233	476.084706770349	17
214	14989671	536.084706770349	10
214	17138598	596.084706770349	5
214	19024777	656.084706770349	1
214	21185690	716.084706770349	8
319	19827989	680.013083138084	34
319	22105107	740.013083138084	39
318	19827989	680.013083138084	5
318	22105107	740.013083138084	4
vector 360 World.node[191].appl.middleware.ExampleService proof_size ETV
vector 361 World.node[191].appl.middleware.ExampleService proof_requested ETV
vector 362 World.node[194].appl.middleware.ExampleService proof_size ETV
vector 363 World.node[194].appl.middleware.ExampleService proof_requested ETV
vector 364 World.node[183].appl.middleware.ExampleService proof_size ETV
vector 365 World.node[183].appl.middleware.ExampleService proof_requested ETV
vector 366 World.node[192].appl.middleware.ExampleService proof_size ETV
vector 367 World.node[192].appl.middleware.ExampleService proof_requested ETV
vector 368 World.node[193].appl.middleware.ExampleService proof_size ETV
vector 369 World.node[193].appl.middleware.ExampleService proof_requested ETV
305	19000642	655.088042245642	36
305	21165112	715.088042245642	37
304	19000642	655.088042245642	10
304	21165112	715.088042245642	15
vector 370 World.node[196].appl.middleware.ExampleService proof_size ETV
vector 371 World.node[196].appl.middleware.ExampleService proof_requested ETV
243	14363858	519.0165537294	41
243	16478599	579.0165537294	36
243	18474421	639.0165537294	35
243	20630951	699.0165537294	39
243	22892293	759.0165537294	41
242	14363858	519.0165537294	14
242	16478599	579.0165537294	14
242	18474421	639.0165537294	9
242	20630951	699.0165537294	10
242	22892293	759.0165537294	11
311	19314078	665.075586443464	37
311	21499765	725.075586443464	35
310	19314078	665.075586443464	1
310	21499765	725.075586443464	0
vector 372 World.node[188].appl.middleware.ExampleService proof_size ETV
vector 373 World.node[188].appl.middleware.ExampleService proof_requested ETV
283	17675925	609.068028487614	35
283	19446955	669.068028487614	35
283	21663709	729.068028487614	37
282	17675925	609.068028487614	16
282	19446955	669.068028487614	16
282	21663709	729.068028487614	22
vector 374 World.node[189].appl.middleware.ExampleService proof_size ETV
vector 375 World.node[189].appl.middleware.ExampleService proof_requested ETV
337	21071005	712.065633475501	35
337	23385596	772.065633475501	24
336	21071005	712.065633475501	4
336	23385596	772.065633475501	1
vector 376 World.node[200].appl.middleware.ExampleService proof_size ETV
vector 377 World.node[200].appl.middleware.ExampleService proof_requested ETV
359	22693481	754.071082677785	38
358	22693481	754.071082677785	23
341	21330951	721.067984760157	38
341	23782716	781.067984760157	42
340	21330951	721.067984760157	0
340	23782716	781.067984760157	20
297	18427817	637.070987743349	32
297	20563444	697.070987743349	36
297	22816483	757.070987743349	41
296	18427817	637.070987743349	8
296	20563444	697.070987743349	17
296	22816483	757.070987743349	0
vector 378 World.node[201].appl.middleware.ExampleService proof_size ETV
vector 379 World.node[201].appl.middleware.ExampleService proof_requested ETV
vector 380 World.node[202].appl.middleware.ExampleService proof_size ETV
vector 381 World.node[202].appl.middleware.ExampleService proof_requested ETV
vector 382 World.node[197].appl.middleware.ExampleService proof_size ETV
vector 383 World.node[197].appl.middleware.ExampleService proof_requested ETV
vector 384 World.node[203].appl.middleware.ExampleService proof_size ETV
vector 385 World.node[203].appl.middleware.ExampleService proof_requested ETV
269	16937303	592.023890205449	36
269	18887212	652.023890205449	33
269	21068474	712.023890205449	37
269	23382183	772.023890205449	42
268	16937303	592.023890205449	12
268	18887212	652.023890205449	8
268	21068474	712.023890205449	7
268	23382183	772.023890205449	13
vector 386 World.node[198].appl.middleware.ExampleService proof_size ETV
vector 387 World.node[198].appl.middleware.ExampleService proof_requested ETV
309	19173466	661.057521266979	36
309	21329913	721.057521266979	34
309	23781804	781.057521266979	41
308	19173466	661.057521266979	11
308	21329913	721.057521266979	9
308	23781804	781.057521266979	13
363	23079092	764.014664714853	26
362	23079092	764.014664714853	8
vector 388 World.node[204].appl.middleware.ExampleService proof_size ETV
vector 389 World.node[204].appl.middleware.ExampleService proof_requested ETV
vector 390 World.node[209].appl.middleware.ExampleService proof_size ETV
vector 391 World.node[209].appl.middleware.ExampleService proof_requested ETV
315	19380917	667.037158145988	16
315	21582212	727.037158145988	29
315	24040918	787.037158145988	40
314	19380917	667.037158145988	7
314	21582212	727.037158145988	15
314	24040918	787.037158145988	17
325	20387572	693.071858684882	42
325	22650291	753.071858684882	40
325	24987925	813.071858684882	40
324	20387572	693.071858684882	0
324	22650291	753.071858684882	27
324	24987925	813.071858684882	6
vector 392 World.node[195].appl.middleware.ExampleService proof_size ETV
vector 393 World.node[195].appl.middleware.ExampleService proof_requested ETV
vector 394 World.node[208].appl.middleware.ExampleService proof_size ETV
vector 395 World.node[208].appl.middleware.ExampleService proof_requested ETV
263	16115196	568.091242758953	33
263	18181453	628.091242758953	35
263	20176209	688.091242758953	41
263	22437045	748.091242758953	39
263	24819054	808.091242758953	44
262	16115196	568.091242758953	6
262	18181453	628.091242758953	2
262	20176209	688.091242758953	26
262	22437045	748.091242758953	24
262	24819054	808.091242758953	13
377	23872383	783.088317100937	40
376	23872383	783.088317100937	17
vector 396 World.node[205].appl.middleware.ExampleService proof_size ETV
vector 397 World.node[205].appl.middleware.ExampleService proof_requested ETV
vector 398 World.node[212].appl.middleware.ExampleService proof_size ETV
vector 399 World.node[212].appl.middleware.ExampleService proof_requested ETV
vector 400 World.node[199].appl.middleware.ExampleService proof_size ETV
vector 401 World.node[199].appl.middleware.ExampleService proof_requested ETV
349	21953697	736.016016593715	38
349	24370971	796.016016593715	39
348	21953697	736.016016593715	23
348	24370971	796.016016593715	11
vector 402 World.node[211].appl.middleware.ExampleService proof_size ETV
vector 403 World.node[211].appl.middleware.ExampleService proof_requested ETV
vector 404 World.node[207].appl.middleware.ExampleService proof_size ETV
vector 405 World.node[207].appl.middleware.ExampleService proof_requested ETV
vector 406 World.node[206].appl.middleware.ExampleService proof_size ETV
vector 407 World.node[206].appl.middleware.ExampleService proof_requested ETV
335	21043322	711.078998592752	39
335	23349739	771.078998592752	39
335	25826841	831.078998592752	42
334	21043322	711.078998592752	12
334	23349739	771.078998592752	18
334	25826841	831.078998592752	12
331	20837615	705.036094834912	34
331	23113663	765.036094834912	40
331	25567443	825.036094834912	42
330	20837615	705.036094834912	11
330	23113663	765.036094834912	10
330	25567443	825.036094834912	20
383	24510704	800.010024858685	40
382	24510704	800.010024858685	22
vector 408 World.node[214].appl.middleware.ExampleService proof_size ETV
vector 409 World.node[214].appl.middleware.ExampleService proof_requested ETV
339	21273834	719.072948127985	31
339	23698218	779.072948127985	36
339	26132720	839.072948127985	26
338	21273834	719.072948127985	5
338	23698218	779.072948127985	5
338	26132720	839.072948127985	4
387	24735398	806.017550954758	41
386	24735398	806.017550954758	10
355	22391608	747.060199605394	36
355	24773018	807.060199605394	41
354	22391608	747.060199605394	15
354	24773018	807.060199605394	16
375	23728226	780.013548490126	31
375	26168276	840.013548490126	42
374	23728226	780.013548490126	8
374	26168276	840.013548490126	14
vector 410 World.node[210].appl.middleware.ExampleService proof_size ETV
vector 411 World.node[210].appl.middleware.ExampleService proof_requested ETV
327	20560498	697.052359528327	34
327	22816170	757.052359528327	42
327	25182636	817.052359528327	41
326	20560498	697.052359528327	13
326	22816170	757.052359528327	16
326	25182636	817.052359528327	22
345	21700311	730.011454826943	30
345	24153551	790.011454826943	40
345	26585822	850.011454826943	44
344	21700311	730.011454826943	17
344	24153551	790.011454826943	19
344	26585822	850.011454826943	22
389	24872458	810.020575090032	38
388	24872458	810.020575090032	8
vector 412 World.node[217].appl.middleware.ExampleService proof_size ETV
vector 413 World.node[217].appl.middleware.ExampleService proof_requested ETV
285	17780156	612.020628556749	37
285	19545816	672.020628556749	38
285	21784659	732.020628556749	40
285	24217263	792.020628556749	41
285	26667279	852.020628556749	45
284	17780156	612.020628556749	17
284	19545816	672.020628556749	9
284	21784659	732.020628556749	14
284	24217263	792.020628556749	13
284	26667279	852.020628556749	12
vector 414 World.node[213].appl.middleware.ExampleService proof_size ETV
vector 415 World.node[213].appl.middleware.ExampleService proof_requested ETV
vector 416 World.node[220].appl.middleware.ExampleService proof_size ETV
vector 417 World.node[220].appl.middleware.ExampleService proof_requested ETV
vector 418 World.node[221].appl.middleware.ExampleService proof_size ETV
vector 419 World.node[221].appl.middleware.ExampleService proof_requested ETV
287	17909293	617.007371602277	20
287	19708084	677.007371602277	36
287	21984579	737.007371602277	35
287	24398575	797.007371602277	39
287	26868503	857.007371602277	43
286	17909293	617.007371602277	8
286	19708084	677.007371602277	5
286	21984579	737.007371602277	4
286	24398575	797.007371602277	23
286	26868503	857.007371602277	24
vector 420 World.node[224].appl.middleware.ExampleService proof_size ETV
vector 421 World.node[224].appl.middleware.ExampleService proof_requested ETV
321	19830761	680.043861259753	36
321	22109148	740.043861259753	38
321	24514566	800.043861259753	41
321	27012920	860.043861259753	44
320	19830761	680.043861259753	8
320	22109148	740.043861259753	2
320	24514566	800.043861259753	13
320	27012920	860.043861259753	18
401	25615702	826.021372600598	42
400	25615702	826.021372600598	13
vector 422 World.node[216].appl.middleware.ExampleService proof_size ETV
vector 423 World.node[216].appl.middleware.ExampleService proof_requested ETV
329	20677845	700.140570681868	32
329	22931633	760.040570681868	38
329	25315197	820.040570681868	42
329	27921965	880.040570681868	44
328	20677845	700.140570681868	0
328	22931633	760.040570681868	14
328	25315197	820.040570681868	16
328	27921965	880.040570681868	13
vector 424 World.node[226].appl.middleware.ExampleService proof_size ETV
vector 425 World.node[226].appl.middleware.ExampleService proof_requested ETV
vector 426 World.node[215].appl.middleware.ExampleService proof_size ETV
vector 427 World.node[215].appl.middleware.ExampleService proof_requested ETV
423	28480674	892.043943701359	40
422	28480674	892.043943701359	23
353	21992340	737.06326081627	40
353	24407612	797.06326081627	41
353	26878673	857.06326081627	43
352	21992340	737.06326081627	0
352	24407612	797.06326081627	1
352	26878673	857.06326081627	25
393	25177540	817.037838828471	40
393	27761648	877.037838828471	42
392	25177540	817.037838828471	17
392	27761648	877.037838828471	10
367	23118648	765.099151714658	32
367	25580431	825.099151714658	41
367	28174234	885.099151714658	31
366	23118648	765.099151714658	11
366	25580431	825.099151714658	4
366	28174234	885.099151714658	15
vector 428 World.node[218].appl.middleware.ExampleService proof_size ETV
vector 429 World.node[218].appl.middleware.ExampleService proof_requested ETV
323	19981096	684.038331040251	33
323	22259520	744.038331040251	36
323	24657383	804.038331040251	42
323	27203059	864.038331040251	42
322	19981096	684.038331040251	8
322	22259520	744.038331040251	12
322	24657383	804.038331040251	14
322	27203059	864.038331040251	15
vector 430 World.node[229].appl.middleware.ExampleService proof_size ETV
vector 431 World.node[229].appl.middleware.ExampleService proof_requested ETV
293	18251495	631.077994465875	22
293	20310631	691.077994465875	33
293	22572566	751.077994465875	40
293	24910431	811.077994465875	41
293	27483503	871.077994465875	37
292	18251495	631.077994465875	0
292	20310631	691.077994465875	1
292	22572566	751.077994465875	5
292	24910431	811.077994465875	1
292	27483503	871.077994465875	1
vector 432 World.node[228].appl.middleware.ExampleService proof_size ETV
vector 433 World.node[228].appl.middleware.ExampleService proof_requested ETV
373	23552746	776.074477464543	42
373	26012006	836.074477464543	44
373	28613366	896.074477464543	40
372	23552746	776.074477464543	21
372	26012006	836.074477464543	9
372	28613366	896.074477464543	3
361	22963563	761.031772296783	41
361	25348980	821.031772296783	44
361	27963393	881.031772296783	25
360	22963563	761.031772296783	18
360	25348980	821.031772296783	18
360	27963393	881.031772296783	14
399	25562774	825.007758987392	42
399	28162933	885.007758987392	43
398	25562774	825.007758987392	32
398	28162933	885.007758987392	22
vector 434 World.node[237].appl.middleware.ExampleService proof_size ETV
vector 435 World.node[237].appl.middleware.ExampleService proof_requested ETV
317	19381982	667.051738939574	37
317	21583592	727.051738939574	38
317	24042103	787.051738939574	40
317	26456113	847.051738939574	43
317	29001646	907.051738939574	31
316	19381982	667.051738939574	24
316	21583592	727.051738939574	25
316	24042103	787.051738939574	27
316	26456113	847.051738939574	10
316	29001646	907.051738939574	11
vector 436 World.node[223].appl.middleware.ExampleService proof_size ETV
vector 437 World.node[223].appl.middleware.ExampleService proof_requested ETV
vector 438 World.node[231].appl.middleware.ExampleService proof_size ETV
vector 439 World.node[231].appl.middleware.ExampleService proof_requested ETV
vector 440 World.node[227].appl.middleware.ExampleService proof_size ETV
vector 441 World.node[227].appl.middleware.ExampleService proof_requested ETV
vector 442 World.node[235].appl.middleware.ExampleService proof_size ETV
vector 443 World.node[235].appl.middleware.ExampleService proof_requested ETV
343	21490854	725.004048553901	34
343	23957720	785.004048553901	42
343	26362922	845.004048553901	39
343	28919352	905.004048553901	25
342	21490854	725.004048553901	14
342	23957720	785.004048553901	28
342	26362922	845.004048553901	6
342	28919352	905.004048553901	13
vector 444 World.node[239].appl.middleware.ExampleService proof_size ETV
vector 445 World.node[239].appl.middleware.ExampleService proof_requested ETV
397	25523454	824.035642249859	38
397	28116540	884.035642249859	44
397	30326347	944.035642249859	42
396	25523454	824.035642249859	11
396	28116540	884.035642249859	1
396	30326347	944.035642249859	8
vector 446 World.node[243].appl.middleware.ExampleService proof_size ETV
vector 447 World.node[243].appl.middleware.ExampleService proof_requested ETV
409	26494211	848.004722615331	42
409	29030340	908.004722615331	34
408	26494211	848.004722615331	5
408	29030340	908.004722615331	5
vector 448 World.node[230].appl.middleware.ExampleService proof_size ETV
vector 449 World.node[230].appl.middleware.ExampleService proof_requested ETV
365	23080578	764.024411308602	37
365	25522505	824.024411308602	44
365	28115667	884.024411308602	46
365	30326051	944.024411308602	33
364	23080578	764.024411308602	7
364	25522505	824.024411308602	31
364	28115667	884.024411308602	8
364	30326051	944.024411308602	23
357	22563938	751.033165840013	39
357	24906770	811.033165840013	41
357	27477691	871.033165840013	41
357	29847589	931.033165840013	33
356	22563938	751.033165840013	11
356	24906770	811.033165840013	10
356	27477691	871.033165840013	8
356	29847589	931.033165840013	7
vector 450 World.node[232].appl.middleware.ExampleService proof_size ETV
vector 451 World.node[232].appl.middleware.ExampleService proof_requested ETV
279	17515311	605.046776468051	28
279	19311517	665.046776468051	36
279	21495559	725.046776468051	39
279	23963402	785.046776468051	41
279	26371505	845.046776468051	44
279	28926199	905.046776468051	26
278	17515311	605.046776468051	14
278	19311517	665.046776468051	11
278	21495559	725.046776468051	18
278	23963402	785.046776468051	18
278	26371505	845.046776468051	0
278	28926199	905.046776468051	13
381	24485396	799.008514181362	18
381	26973685	859.008514181362	39
381	29474371	919.008514181362	40
380	24485396	799.008514181362	6
380	26973685	859.008514181362	7
380	29474371	919.008514181362	6
vector 452 World.node[240].appl.middleware.ExampleService proof_size ETV
vector 453 World.node[240].appl.middleware.ExampleService proof_requested ETV
425	28515563	893.099733851524	39
425	30694541	953.099733851524	31
424	28515563	893.099733851524	0
424	30694541	953.099733851524	1
441	29726325	927.044069860457	29
440	29726325	927.044069860457	11
vector 454 World.node[238].appl.middleware.ExampleService proof_size ETV
vector 455 World.node[238].appl.middleware.ExampleService proof_requested ETV
347	21827918	733.051893577352	33
347	24256403	793.051893577352	39
347	26707237	853.051893577352	45
347	29232675	913.051893577352	40
346	21827918	733.051893577352	16
346	24256403	793.051893577352	15
346	26707237	853.051893577352	19
346	29232675	913.051893577352	17
vector 456 World.node[234].appl.middleware.ExampleService proof_size ETV
vector 457 World.node[234].appl.middleware.ExampleService proof_requested ETV
vector 458 World.node[236].appl.middleware.ExampleService proof_size ETV
vector 459 World.node[236].appl.middleware.ExampleService proof_requested ETV
vector 460 World.node[241].appl.middleware.ExampleService proof_size ETV
vector 461 World.node[241].appl.middleware.ExampleService proof_requested ETV
vector 462 World.node[242].appl.middleware.ExampleService proof_size ETV
vector 463 World.node[242].appl.middleware.ExampleService proof_requested ETV
403	25682490	828.00491199526	44
403	28286210	888.00491199526	43
403	30471098	948.00491199526	43
402	25682490	828.00491199526	26
402	28286210	888.00491199526	19
402	30471098	948.00491199526	14
385	24550541	801.048178768787	16
385	27062097	861.048178768787	42
385	29535718	921.048178768787	42
384	24550541	801.048178768787	6
384	27062097	861.048178768787	16
384	29535718	921.048178768787	15
vector 464 World.node[248].appl.middleware.ExampleService proof_size ETV
vector 465 World.node[248].appl.middleware.ExampleService proof_requested ETV
391	25095613	815.053781583766	41
391	27661585	875.053781583766	42
391	29993132	935.053781583766	35
390	25095613	815.053781583766	12
390	27661585	875.053781583766	19
390	29993132	935.053781583766	11
455	31185952	967.075604148256	37
454	31185952	967.075604148256	20
429	28881489	904.060556568834	39
429	31065641	964.060556568834	24
428	28881489	904.060556568834	18
428	31065641	964.060556568834	10
vector 466 World.node[247].appl.middleware.ExampleService proof_size ETV
vector 467 World.node[247].appl.middleware.ExampleService proof_requested ETV
461	31376511	972.091031122091	29
460	31376511	972.091031122091	16
371	23388673	772.095475768764	25
371	25862307	832.095475768764	40
371	28485646	892.095475768764	42
371	30650570	952.095475768764	42
370	23388673	772.095475768764	9
370	25862307	832.095475768764	13
370	28485646	892.095475768764	21
370	30650570	952.095475768764	0
vector 468 World.node[244].appl.middleware.ExampleService proof_size ETV
vector 469 World.node[244].appl.middleware.ExampleService proof_requested ETV
351	21992067	737.060952686775	42
351	24407610	797.060952686775	39
351	26878671	857.060952686775	43
351	29394132	917.060952686775	29
351	31532336	977.060952686775	33
350	21992067	737.060952686775	0
350	24407610	797.060952686775	15
350	26878671	857.060952686775	0
350	29394132	917.060952686775	17
350	31532336	977.060952686775	15
379	24411152	797.093214009167	36
379	26882200	857.093214009167	42
379	29395850	917.093214009167	42
379	31534920	977.093214009167	20
378	24411152	797.093214009167	1
378	26882200	857.093214009167	0
378	29395850	917.093214009167	18
378	31534920	977.093214009167	10
395	25186354	817.088786446792	44
395	27770698	877.088786446792	42
395	30074233	937.088786446792	33
394	25186354	817.088786446792	26
394	27770698	877.088786446792	1
394	30074233	937.088786446792	13
vector 470 World.node[245].appl.middleware.ExampleService proof_size ETV
vector 471 World.node[245].appl.middleware.ExampleService proof_requested ETV
vector 472 World.node[251].appl.middleware.ExampleService proof_size ETV
vector 473 World.node[251].appl.middleware.ExampleService proof_requested ETV
vector 474 World.node[250].appl.middleware.ExampleService proof_size ETV
vector 475 World.node[250].appl.middleware.ExampleService proof_requested ETV
vector 476 World.node[249].appl.middleware.ExampleService proof_size ETV
vector 477 World.node[249].appl.middleware.ExampleService proof_requested ETV
413	27281533	866.060362574621	39
413	29697411	926.060362574621	39
413	31769518	986.060362574621	35
412	27281533	866.060362574621	12
412	29697411	926.060362574621	13
412	31769518	986.060362574621	10
439	29694041	926.005533202388	32
439	31767145	986.005533202388	33
438	29694041	926.005533202388	0
438	31767145	986.005533202388	8
417	27705354	876.036764534097	37
417	30024287	936.036764534097	36
417	32029906	996.036764534097	28
416	27705354	876.036764534097	1
416	30024287	936.036764534097	10
416	32029906	996.036764534097	0
vector 478 World.node[246].appl.middleware.ExampleService proof_size ETV
vector 479 World.node[246].appl.middleware.ExampleService proof_requested ETV
vector 480 World.node[256].appl.middleware.ExampleService proof_size ETV
vector 481 World.node[256].appl.middleware.ExampleService proof_requested ETV
vector 482 World.node[254].appl.middleware.ExampleService proof_size ETV
vector 483 World.node[254].appl.middleware.ExampleService proof_requested ETV
449	30642849	952.013567385916	39
449	32504082	1012.013567385916	35
448	30642849	952.013567385916	8
448	32504082	1012.013567385916	9
vector 484 World.node[252].appl.middleware.ExampleService proof_size ETV
vector 485 World.node[252].appl.middleware.ExampleService proof_requested ETV
vector 486 World.node[255].appl.middleware.ExampleService proof_size ETV
vector 487 World.node[255].appl.middleware.ExampleService proof_requested ETV
427	28612220	896.054239943763	38
427	30800493	956.054239943763	37
427	32646051	1016.054239943763	20
426	28612220	896.054239943763	14
426	30800493	956.054239943763	16
426	32646051	1016.054239943763	4
407	25893791	833.078506411496	35
407	28514681	893.078506411496	38
407	30693391	953.078506411496	41
407	32543176	1013.078506411496	35
406	25893791	833.078506411496	13
406	28514681	893.078506411496	18
406	30693391	953.078506411496	19
406	32543176	1013.078506411496	2
vector 488 World.node[257].appl.middleware.ExampleService proof_size ETV
vector 489 World.node[257].appl.middleware.ExampleService proof_requested ETV
459	31372127	972.049381307908	34
458	31372127	972.049381307908	13
415	27703215	876.017377188802	41
415	30023104	936.017377188802	39
415	32028955	996.017377188802	28
414	27703215	876.017377188802	18
414	30023104	936.017377188802	12
414	32028955	996.017377188802	8
vector 490 World.node[261].appl.middleware.ExampleService proof_size ETV
vector 491 World.node[261].appl.middleware.ExampleService proof_requested ETV
vector 492 World.node[258].appl.middleware.ExampleService proof_size ETV
vector 493 World.node[258].appl.middleware.ExampleService proof_requested ETV
369	23148339	766.036956222611	30
369	25617264	826.036956222611	42
369	28210975	886.036956222611	43
369	30400828	946.036956222611	36
369	32318888	1006.036956222611	31
368	23148339	766.036956222611	8
368	25617264	826.036956222611	2
368	28210975	886.036956222611	5
368	30400828	946.036956222611	8
368	32318888	1006.036956222611	13
vector 494 World.node[259].appl.middleware.ExampleService proof_size ETV
vector 495 World.node[259].appl.middleware.ExampleService proof_requested ETV
vector 496 World.node[253].appl.middleware.ExampleService proof_size ETV
vector 497 World.node[253].appl.middleware.ExampleService proof_requested ETV
405	25856070	832.0181963888	43
405	28478955	892.0181963888	39
405	30643146	952.0181963888	35
405	32504584	1012.0181963888	30
404	25856070	832.0181963888	4
404	28478955	892.0181963888	0
404	30643146	952.0181963888	9
404	32504584	1012.0181963888	8
vector 498 World.node[267].appl.middleware.ExampleService proof_size ETV
vector 499 World.node[267].appl.middleware.ExampleService proof_requested ETV
411	27206805	864.063741428358	45
411	29639501	924.063741428358	38
411	31731445	984.063741428358	19
411	33425333	1044.063741428358	16
410	27206805	864.063741428358	0
410	29639501	924.063741428358	10
410	31731445	984.063741428358	5
410	33425333	1044.063741428358	7
vector 500 World.node[266].appl.middleware.ExampleService proof_size ETV
vector 501 World.node[266].appl.middleware.ExampleService proof_requested ETV
vector 502 World.node[269].appl.middleware.ExampleService proof_size ETV
vector 503 World.node[269].appl.middleware.ExampleService proof_requested ETV
465	31479445	975.083111801324	12
465	33133986	1035.083111801324	35
464	31479445	975.083111801324	1
464	33133986	1035.083111801324	13
333	21039409	711.018189246231	39
333	23343981	771.018189246231	42
333	25821641	831.018189246231	42
333	28438215	891.018189246231	41
333	30607683	951.018189246231	38
333	32475860	1011.018189246231	26
332	21039409	711.018189246231	13
332	23343981	771.018189246231	12
332	25821641	831.018189246231	14
332	28438215	891.018189246231	14
332	30607683	951.018189246231	16
332	32475860	1011.018189246231	5
433	29263300	914.012158894097	30
433	31431282	974.012158894097	35
433	33104670	1034.012158894097	31
432	29263300	914.012158894097	7
432	31431282	974.012158894097	8
432	33104670	1034.012158894097	6
485	32702862	1018.03330028702	28
484	32702862	1018.03330028702	16
vector 504 World.node[262].appl.middleware.ExampleService proof_size ETV
vector 505 World.node[262].appl.middleware.ExampleService proof_requested ETV
435	29538988	921.098281544517	41
435	31647475	981.098281544517	37
435	33324695	1041.098281544517	37
434	29538988	921.098281544517	15
434	31647475	981.098281544517	8
434	33324695	1041.098281544517	12
475	32067549	997.069968219288	33
475	33877840	1057.069968219288	37
474	32067549	997.069968219288	19
474	33877840	1057.069968219288	2
463	31376786	972.091939973575	35
463	33057430	1032.091939973575	23
462	31376786	972.091939973575	21
462	33057430	1032.091939973575	6
vector 506 World.node[264].appl.middleware.ExampleService proof_size ETV
vector 507 World.node[264].appl.middleware.ExampleService proof_requested ETV
vector 508 World.node[268].appl.middleware.ExampleService proof_size ETV
vector 509 World.node[268].appl.middleware.ExampleService proof_requested ETV
vector 510 World.node[260].appl.middleware.ExampleService proof_size ETV
vector 511 World.node[260].appl.middleware.ExampleService proof_requested ETV
445	30216292	941.053393172403	27
445	32175950	1001.053393172403	29
445	34007139	1061.053393172403	38
444	30216292	941.053393172403	11
444	32175950	1001.053393172403	12
444	34007139	1061.053393172403	25
493	33218047	1038.069440129097	28
492	33218047	1038.069440129097	10
vector 512 World.node[272].appl.middleware.ExampleService proof_size ETV
vector 513 World.node[272].appl.middleware.ExampleService proof_requested ETV
453	30834382	957.044758101064	26
453	32674846	1017.044758101064	32
453	34428780	1077.044758101064	34
452	30834382	957.044758101064	13
452	32674846	1017.044758101064	13
452	34428780	1077.044758101064	13
vector 514 World.node[265].appl.middleware.ExampleService proof_size ETV
vector 515 World.node[265].appl.middleware.ExampleService proof_requested ETV
431	29003634	907.061917538592	26
431	31184861	967.061917538592	34
431	32935238	1027.061917538592	30
431	34703042	1087.061917538592	27
430	29003634	907.061917538592	13
430	31184861	967.061917538592	12
430	32935238	1027.061917538592	9
430	34703042	1087.061917538592	8
487	32725429	1019.040397670725	31
487	34466892	1079.040397670725	29
486	32725429	1019.040397670725	10
486	34466892	1079.040397670725	8
457	31215108	968.057724861265	37
457	32953790	1028.057724861265	30
457	34727010	1088.057724861265	35
456	31215108	968.057724861265	17
456	32953790	1028.057724861265	10
456	34727010	1088.057724861265	13
477	32266449	1004.081856600218	28
477	34103221	1064.081856600218	31
476	32266449	1004.081856600218	12
476	34103221	1064.081856600218	7
[...]
vector 1776 World.node[917].appl.middleware.ExampleService proof_size ETV
vector 1777 World.node[917].appl.middleware.ExampleService proof_requested ETV
vector 1778 World.node[930].appl.middleware.ExampleService proof_size ETV
vector 1779 World.node[930].appl.middleware.ExampleService proof_requested ETV
vector 1780 World.node[925].appl.middleware.ExampleService proof_size ETV
vector 1781 World.node[925].appl.middleware.ExampleService proof_requested ETV
vector 1782 World.node[926].appl.middleware.ExampleService proof_size ETV
vector 1783 World.node[926].appl.middleware.ExampleService proof_requested ETV
1733	143722409	3479.014886169066	56
1733	146868372	3539.014886169066	45
1732	143722409	3479.014886169066	19
1732	146868372	3539.014886169066	14
1683	136531267	3378.084964323067	45
1683	141052671	3438.084964323067	50
1683	144928345	3498.084964323067	44
1683	147850730	3558.084964323067	43
1682	136531267	3378.084964323067	10
1682	141052671	3438.084964323067	18
1682	144928345	3498.084964323067	10
1682	147850730	3558.084964323067	15
vector 1784 World.node[929].appl.middleware.ExampleService proof_size ETV
vector 1785 World.node[929].appl.middleware.ExampleService proof_requested ETV
1691	138035927	3396.014287081663	57
1691	142156181	3456.014287081663	46
1691	145776547	3516.014287081663	44
1690	138035927	3396.014287081663	27
1690	142156181	3456.014287081663	19
1690	145776547	3516.014287081663	0
vector 1786 World.node[924].appl.middleware.ExampleService proof_size ETV
vector 1787 World.node[924].appl.middleware.ExampleService proof_requested ETV
vector 1788 World.node[922].appl.middleware.ExampleService proof_size ETV
vector 1789 World.node[922].appl.middleware.ExampleService proof_requested ETV
1711	139508962	3417.067278016545	55
1711	143567470	3477.067278016545	58
1711	146779335	3537.067278016545	34
1710	139508962	3417.067278016545	0
1710	143567470	3477.067278016545	14
1710	146779335	3537.067278016545	1
1723	140978870	3437.08433246566	53
1723	144887213	3497.08433246566	47
1723	147787723	3557.08433246566	49
1722	140978870	3437.08433246566	30
1722	144887213	3497.08433246566	13
1722	147787723	3557.08433246566	16
1743	144459821	3490.080336111248	46
1743	147387861	3550.080336111248	42
1742	144459821	3490.080336111248	0
1742	147387861	3550.080336111248	19
1631	130229083	3281.057430051197	53
1631	134022020	3341.057430051197	55
1631	138484366	3401.057430051197	57
1631	142494075	3461.057430051197	52
1631	146041911	3521.057430051197	32
1630	130229083	3281.057430051197	1
1630	134022020	3341.057430051197	0
1630	138484366	3401.057430051197	38
1630	142494075	3461.057430051197	0
1630	146041911	3521.057430051197	8
vector 1790 World.node[928].appl.middleware.ExampleService proof_size ETV
vector 1791 World.node[928].appl.middleware.ExampleService proof_requested ETV
1667	133711973	3337.049122602143	59
1667	138130322	3397.049122602143	60
1667	142225903	3457.049122602143	49
1667	145831861	3517.049122602143	47
1666	133711973	3337.049122602143	3
1666	138130322	3397.049122602143	14
1666	142225903	3457.049122602143	1
1666	145831861	3517.049122602143	4
1765	146141649	3523.014555477141	42
1764	146141649	3523.014555477141	7
1701	138699575	3404.057588588446	58
1701	142677431	3464.057588588446	48
1701	146187958	3524.057588588446	46
1700	138699575	3404.057588588446	29
1700	142677431	3464.057588588446	22
1700	146187958	3524.057588588446	14
1785	148301036	3566.034358177986	50
1784	148301036	3566.034358177986	21
vector 1792 World.node[935].appl.middleware.ExampleService proof_size ETV
vector 1793 World.node[935].appl.middleware.ExampleService proof_requested ETV
vector 1794 World.node[931].appl.middleware.ExampleService proof_size ETV
vector 1795 World.node[931].appl.middleware.ExampleService proof_requested ETV
vector 1796 World.node[932].appl.middleware.ExampleService proof_size ETV
vector 1797 World.node[932].appl.middleware.ExampleService proof_requested ETV
1583	125879837	3194.058694547322	44
1583	128667712	3254.058694547322	48
1583	132233584	3314.058694547322	52
1583	136197128	3374.058694547322	56
1583	140735649	3434.058694547322	55
1583	144726195	3494.058694547322	50
1583	147612518	3554.058694547322	48
1582	125879837	3194.058694547322	13
1582	128667712	3254.058694547322	17
1582	132233584	3314.058694547322	1
1582	136197128	3374.058694547322	5
1582	140735649	3434.058694547322	11
1582	144726195	3494.058694547322	19
1582	147612518	3554.058694547322	15
1777	147733057	3556.016852752259	31
1776	147733057	3556.016852752259	7
1745	144460960	3490.086981565156	46
1745	147389299	3550.086981565156	38
1744	144460960	3490.086981565156	19
1744	147389299	3550.086981565156	16
vector 1798 World.node[934].appl.middleware.ExampleService proof_size ETV
vector 1799 World.node[934].appl.middleware.ExampleService proof_requested ETV
vector 1800 World.node[933].appl.middleware.ExampleService proof_size ETV
vector 1801 World.node[933].appl.middleware.ExampleService proof_requested ETV
vector 1802 World.node[937].appl.middleware.ExampleService proof_size ETV
vector 1803 World.node[937].appl.middleware.ExampleService proof_requested ETV
1587	126114883	3200.031858111126	43
1587	128986251	3260.031858111126	50
1587	132593871	3320.031858111126	53
1587	136672228	3380.031858111126	56
1587	141172618	3440.031858111126	53
1587	145013085	3500.031858111126	48
1587	147938424	3560.031858111126	52
1586	126114883	3200.031858111126	5
1586	128986251	3260.031858111126	3
1586	132593871	3320.031858111126	0
1586	136672228	3380.031858111126	0
1586	141172618	3440.031858111126	13
1586	145013085	3500.031858111126	13
1586	147938424	3560.031858111126	13
vector 1804 World.node[939].appl.middleware.ExampleService proof_size ETV
vector 1805 World.node[939].appl.middleware.ExampleService proof_requested ETV
vector 1806 World.node[936].appl.middleware.ExampleService proof_size ETV
vector 1807 World.node[936].appl.middleware.ExampleService proof_requested ETV
1721	140822485	3435.024878489319	45
1721	144776778	3495.024878489319	45
1721	147668356	3555.024878489319	44
1720	140822485	3435.024878489319	14
1720	144776778	3495.024878489319	19
1720	147668356	3555.024878489319	13
1731	143216587	3472.092934132228	57
1731	146552170	3532.092934132228	45
1731	149431230	3592.092934132228	43
1730	143216587	3472.092934132228	0
1730	146552170	3532.092934132228	0
1730	149431230	3592.092934132228	14
1749	144778803	3495.042101402255	47
1749	147669804	3555.042101402255	44
1748	144778803	3495.042101402255	13
1748	147669804	3555.042101402255	21
vector 1808 World.node[940].appl.middleware.ExampleService proof_size ETV
vector 1809 World.node[940].appl.middleware.ExampleService proof_requested ETV
vector 1810 World.node[943].appl.middleware.ExampleService proof_size ETV
vector 1811 World.node[943].appl.middleware.ExampleService proof_requested ETV
1725	141232392	3441.041507114843	54
1725	145055639	3501.041507114843	47
1725	148008504	3561.041507114843	48
1725	150644773	3621.041507114843	35
1724	141232392	3441.041507114843	20
1724	145055639	3501.041507114843	11
1724	148008504	3561.041507114843	16
1724	150644773	3621.041507114843	19
1783	148165348	3564.000286786165	49
1782	148165348	3564.000286786165	15
1633	130233775	3281.099140464514	37
1633	134028992	3341.099140464514	56
1633	138499995	3401.099140464514	60
1633	142507114	3461.099140464514	50
1633	146051659	3521.099140464514	46
1633	149033256	3581.099140464514	40
1632	130233775	3281.099140464514	14
1632	134028992	3341.099140464514	17
1632	138499995	3401.099140464514	0
1632	142507114	3461.099140464514	14
1632	146051659	3521.099140464514	16
1632	149033256	3581.099140464514	0
1781	148101843	3563.01265098236	50
1781	150710725	3623.01265098236	29
1780	148101843	3563.01265098236	18
1780	150710725	3623.01265098236	11
vector 1812 World.node[938].appl.middleware.ExampleService proof_size ETV
vector 1813 World.node[938].appl.middleware.ExampleService proof_requested ETV
1619	129505865	3269.057847575517	48
1619	133093722	3329.057847575517	55
1619	137378312	3389.057847575517	59
1619	141696410	3449.057847575517	49
1619	145428493	3509.057847575517	42
1619	148459331	3569.057847575517	45
1619	150948481	3629.057847575517	40
1618	129505865	3269.057847575517	18
1618	133093722	3329.057847575517	14
1618	137378312	3389.057847575517	25
1618	141696410	3449.057847575517	21
1618	145428493	3509.057847575517	14
1618	148459331	3569.057847575517	23
1618	150948481	3629.057847575517	23
1807	150125490	3609.084096477227	39
1806	150125490	3609.084096477227	24
1747	144678509	3493.097531079384	32
1747	147580534	3553.097531079384	48
1747	150327449	3613.097531079384	45
1746	144678509	3493.097531079384	12
1746	147580534	3553.097531079384	21
1746	150327449	3613.097531079384	22
vector 1814 World.node[941].appl.middleware.ExampleService proof_size ETV
vector 1815 World.node[941].appl.middleware.ExampleService proof_requested ETV
1771	146964235	3541.088271440403	45
1771	149783668	3601.088271440403	32
1770	146964235	3541.088271440403	12
1770	149783668	3601.088271440403	9
1767	146685288	3535.038826326281	44
1767	149555568	3595.038826326281	45
1766	146685288	3535.038826326281	22
1766	149555568	3595.038826326281	9
vector 1816 World.node[942].appl.middleware.ExampleService proof_size ETV
vector 1817 World.node[942].appl.middleware.ExampleService proof_requested ETV
1773	146993813	3542.058357350179	37
1773	149812109	3602.058357350179	44
1772	146993813	3542.058357350179	10
1772	149812109	3602.058357350179	7
1801	149623600	3597.023668514029	44
1801	151634933	3657.023668514029	34
1800	149623600	3597.023668514029	8
1800	151634933	3657.023668514029	9
1761	145572424	3512.09561049568	48
1761	148628022	3572.09561049568	50
1761	151048313	3632.09561049568	39
1760	145572424	3512.09561049568	0
1760	148628022	3572.09561049568	1
1760	151048313	3632.09561049568	0
1597	126888823	3217.009166236781	34
1597	129971878	3277.009166236781	49
1597	133705222	3337.009166236781	56
1597	138116680	3397.009166236781	57
1597	142214714	3457.009166236781	46
1597	145825848	3517.009166236781	46
1597	148851214	3577.009166236781	44
1597	151180162	3637.009166236781	31
1596	126888823	3217.009166236781	6
1596	129971878	3277.009166236781	11
1596	133705222	3337.009166236781	12
1596	138116680	3397.009166236781	11
1596	142214714	3457.009166236781	8
1596	145825848	3517.009166236781	6
1596	148851214	3577.009166236781	4
1596	151180162	3637.009166236781	3
1735	143847781	3481.037109596189	52
1735	146959225	3541.037109596189	45
1735	149777554	3601.037109596189	44
1735	151729571	3661.037109596189	30
1734	143847781	3481.037109596189	0
1734	146959225	3541.037109596189	1
1734	149777554	3601.037109596189	2
1734	151729571	3661.037109596189	2
1787	148422883	3568.07739680605	38
1787	150920505	3628.07739680605	37
1786	148422883	3568.07739680605	20
1786	150920505	3628.07739680605	1
1779	147846675	3558.052531653503	25
1779	150503125	3618.052531653503	41
1779	152067372	3678.052531653503	31
1778	147846675	3558.052531653503	10
1778	150503125	3618.052531653503	12
1778	152067372	3678.052531653503	7
1689	137944955	3395.044330079085	52
1689	142083776	3455.044330079085	50
1689	145730641	3515.044330079085	45
1689	148768964	3575.044330079085	47
1689	151133229	3635.044330079085	36
1688	137944955	3395.044330079085	23
1688	142083776	3455.044330079085	14
1688	145730641	3515.044330079085	17
1688	148768964	3575.044330079085	17
1688	151133229	3635.044330079085	17
1775	147612875	3554.063513954706	45
1775	150358198	3614.063513954706	44
1775	152002012	3674.063513954706	23
1774	147612875	3554.063513954706	1
1774	150358198	3614.063513954706	17
1774	152002012	3674.063513954706	9
1813	150919665	3628.073195221182	37
1813	152219477	3688.073195221182	24
1812	150919665	3628.073195221182	25
1812	152219477	3688.073195221182	15
1797	149065194	3582.055312694889	39
1797	151313788	3642.055312694889	35
1796	149065194	3582.055312694889	16
1796	151313788	3642.055312694889	13
1817	151382405	3645.074949197867	34
1817	152428591	3705.074949197867	13
1816	151382405	3645.074949197867	14
1816	152428591	3705.074949197867	3
1795	149027253	3581.040469115786	41
1795	151290035	3641.040469115786	26
1795	152385482	3701.040469115786	19
1794	149027253	3581.040469115786	10
1794	151290035	3641.040469115786	2
1794	152385482	3701.040469115786	4
1741	144381008	3489.083471398824	51
1741	147329109	3549.083471398824	47
1741	150125488	3609.083471398824	44
1741	151905882	3669.083471398824	32
1740	144381008	3489.083471398824	21
1740	147329109	3549.083471398824	17
1740	150125488	3609.083471398824	18
1740	151905882	3669.083471398824	19
1719	140576449	3432.066880592052	43
1719	144600126	3492.066880592052	53
1719	147506412	3552.066880592052	44
1719	150282739	3612.066880592052	43
1719	151968124	3672.066880592052	30
1718	140576449	3432.066880592052	12
1718	144600126	3492.066880592052	18
1718	147506412	3552.066880592052	14
1718	150282739	3612.066880592052	14
1718	151968124	3672.066880592052	8
1811	150684060	3622.060273409449	37
1811	152126985	3682.060273409449	31
1810	150684060	3622.060273409449	7
1810	152126985	3682.060273409449	1
1793	149001635	3580.087543495838	43
1793	151272680	3640.087543495838	35
1793	152376969	3700.087543495838	25
1792	149001635	3580.087543495838	13
1792	151272680	3640.087543495838	2
1792	152376969	3700.087543495838	1
1755	145339919	3507.097805884876	16
1755	148378045	3567.097805884876	46
1755	150893546	3627.097805884876	42
1755	152208789	3687.097805884876	21
1754	145339919	3507.097805884876	6
1754	148378045	3567.097805884876	19
1754	150893546	3627.097805884876	1
1754	152208789	3687.097805884876	3
1709	139508960	3417.064499667496	50
1709	143566703	3477.064499667496	53
1709	146778686	3537.064499667496	44
1709	149626826	3597.064499667496	42
1709	151637531	3657.064499667496	32
1709	152528997	3717.064499667496	19
1708	139508960	3417.064499667496	11
1708	143566703	3477.064499667496	22
1708	146778686	3537.064499667496	15
1708	149626826	3597.064499667496	19
1708	151637531	3657.064499667496	5
1708	152528997	3717.064499667496	7
1763	145988573	3520.010865621734	6
1763	148994736	3580.010865621734	28
1763	151268200	3640.010865621734	35
1763	152374898	3700.010865621734	26
1762	145988573	3520.010865621734	4
1762	148994736	3580.010865621734	5
1762	151268200	3640.010865621734	11
1762	152374898	3700.010865621734	10
1753	145334388	3507.033524478506	20
1753	148370549	3567.033524478506	45
1753	150887381	3627.033524478506	42
1753	152206942	3687.033524478506	24
1753	152696796	3747.033524478506	14
1752	145334388	3507.033524478506	8
1752	148370549	3567.033524478506	3
1752	150887381	3627.033524478506	19
1752	152206942	3687.033524478506	2
1752	152696796	3747.033524478506	6
1809	150682518	3622.052784548141	43
1809	152126766	3682.052784548141	29
1809	152661275	3742.052784548141	14
1808	150682518	3622.052784548141	13
1808	152126766	3682.052784548141	6
1808	152661275	3742.052784548141	3
1805	149814048	3602.071187122189	40
1805	151751020	3662.071187122189	22
1805	152559224	3722.071187122189	12
1804	149814048	3602.071187122189	1
1804	151751020	3662.071187122189	8
1804	152559224	3722.071187122189	4
1693	138198156	3398.015049519879	53
1693	142281850	3458.015049519879	53
1693	145873011	3518.015049519879	48
1693	148901203	3578.015049519879	42
1693	151213167	3638.015049519879	34
1693	152345090	3698.015049519879	19
1693	152775480	3758.015049519879	13
1692	138198156	3398.015049519879	13
1692	142281850	3458.015049519879	15
1692	145873011	3518.015049519879	7
1692	148901203	3578.015049519879	9
1692	151213167	3638.015049519879	9
1692	152345090	3698.015049519879	5
1692	152775480	3758.015049519879	2
1729	143210318	3472.057168784784	56
1729	146547402	3532.057168784784	45
1729	149428933	3592.057168784784	44
1729	151519715	3652.057168784784	32
1729	152490843	3712.057168784784	21
1729	152827738	3772.057168784784	13
1728	143210318	3472.057168784784	0
1728	146547402	3532.057168784784	13
1728	149428933	3592.057168784784	24
1728	151519715	3652.057168784784	8
1728	152490843	3712.057168784784	6
1728	152827738	3772.057168784784	5
1757	145386418	3508.07316010131	49
1757	148422529	3568.07316010131	46
1757	150919663	3628.07316010131	38
1757	152219475	3688.07316010131	24
1757	152703512	3748.07316010131	17
1756	145386418	3508.07316010131	13
1756	148422529	3568.07316010131	21
1756	150919663	3628.07316010131	15
1756	152219475	3688.07316010131	7
1756	152703512	3748.07316010131	7
1803	149626824	3597.064355451567	46
1803	151637529	3657.064355451567	34
1803	152528952	3717.064355451567	18
1803	152843733	3777.064355451567	12
1802	149626824	3597.064355451567	17
1802	151637529	3657.064355451567	1
1802	152528952	3717.064355451567	7
1802	152843733	3777.064355451567	3
1727	141885169	3452.056258156803	48
1727	145560753	3512.056258156803	47
1727	148623087	3572.056258156803	48
1727	151045218	3632.056258156803	39
1727	152262798	3692.056258156803	27
1727	152734091	3752.056258156803	15
1727	152905400	3812.056258156803	6
1726	141885169	3452.056258156803	13
1726	145560753	3512.056258156803	12
1726	148623087	3572.056258156803	40
1726	151045218	3632.056258156803	10
1726	152262798	3692.056258156803	3
1726	152734091	3752.056258156803	7
1726	152905400	3812.056258156803	1
1791	148674443	3573.028270454379	45
1791	151078442	3633.028270454379	39
1791	152277166	3693.028270454379	23
1791	152740334	3753.028270454379	15
1791	152906467	3813.028270454379	5
1790	148674443	3573.028270454379	3
1790	151078442	3633.028270454379	24
1790	152277166	3693.028270454379	3
1790	152740334	3753.028270454379	12
1790	152906467	3813.028270454379	1
1799	149497520	3594.026187289553	39
1799	151562364	3654.026187289553	33
1799	152504015	3714.026187289553	19
1799	152834133	3774.026187289553	13
1799	152929234	3834.026187289553	6
1798	149497520	3594.026187289553	7
1798	151562364	3654.026187289553	11
1798	152504015	3714.026187289553	5
1798	152834133	3774.026187289553	2
1798	152929234	3834.026187289553	2
1715	139765218	3421.009695132053	53
1715	143843163	3481.009695132053	54
1715	146956626	3541.009695132053	45
1715	149775999	3601.009695132053	42
1715	151728875	3661.009695132053	32
1715	152552917	3721.009695132053	19
1715	152852264	3781.009695132053	5
1715	152938792	3841.009695132053	5
1714	139765218	3421.009695132053	0
1714	143843163	3481.009695132053	9
1714	146956626	3541.009695132053	6
1714	149775999	3601.009695132053	4
1714	151728875	3661.009695132053	6
1714	152552917	3721.009695132053	3
1714	152852264	3781.009695132053	0
1714	152938792	3841.009695132053	0
1769	146825363	3538.051816485287	36
1769	149666275	3598.051816485287	34
1769	151660973	3658.051816485287	32
1769	152535625	3718.051816485287	19
1769	152845859	3778.051816485287	12
1769	152934972	3838.051816485287	5
1768	146825363	3538.051816485287	13
1768	149666275	3598.051816485287	9
1768	151660973	3658.051816485287	9
1768	152535625	3718.051816485287	4
1768	152845859	3778.051816485287	2
1768	152934972	3838.051816485287	3
1759	145562455	3512.076150191063	43
1759	148626067	3572.076150191063	47
1759	151047273	3632.076150191063	39
1759	152264095	3692.076150191063	25
1759	152734927	3752.076150191063	16
1759	152905460	3812.076150191063	7
1759	152967958	3872.076150191063	4
1758	145562455	3512.076150191063	0
1758	148626067	3572.076150191063	21
1758	151047273	3632.076150191063	1
1758	152264095	3692.076150191063	0
1758	152734927	3752.076150191063	10
1758	152905460	3812.076150191063	4
1758	152967958	3872.076150191063	0
1789	148460626	3569.062174990354	43
1789	150948685	3629.062174990354	40
1789	152230512	3689.062174990354	25
1789	152708586	3749.062174990354	16
1789	152901398	3809.062174990354	7
1789	152966032	3869.062174990354	4
1788	148460626	3569.062174990354	21
1788	150948685	3629.062174990354	12
1788	152230512	3689.062174990354	4
1788	152708586	3749.062174990354	8
1788	152901398	3809.062174990354	3
1788	152966032	3869.062174990354	1
1815	151080488	3633.059661928681	39
1815	152278096	3693.059661928681	23
1815	152741057	3753.059661928681	15
1815	152906585	3813.059661928681	6
1815	152968722	3873.059661928681	4
1814	151080488	3633.059661928681	10
1814	152278096	3693.059661928681	1
1814	152741057	3753.059661928681	10
1814	152906585	3813.059661928681	0
1814	152968722	3873.059661928681	1

