version 2
run No_Obstacles-2-20191117-11:54:49-6118
attr configname No_Obstacles
attr datetime 20191117-11:54:49
attr experiment No_Obstacles
attr inifile omnetpp.ini
attr iterationvars $0=80
attr iterationvarsf 80-
attr measurement $0=80
attr network artery.veins.World
attr processid 6118
attr repetition 0
attr replication #0
attr resultdir results
attr runnumber 2
attr seedset 2
param *.traci.launcher.sumocfg "\"No_Obstacles/run.sumo.cfg\""
param *.node[*].nic.mac1609_4.txPower 20mW
param *.node[*].nic.phy80211p.decider "xmldoc(\"config.xml\")"
param *.node[*].nic.phy80211p.analogueModels "xmldoc(\"config.xml\")"
param *.node[*].applType "\"artery.veins.ApplicationLayer\""
param *.node[*].appl.middleware.updateInterval 0.1s
param *.node[*].appl.middleware.datetime "\"2013-06-01 12:35:00\""
param *.node[*].appl.middleware.services "xmldoc(\"services.xml\")"
param *.node[*].appl.middleware.ExampleService.DecisionLogic 80
param *.node[*].appl.middleware.ExampleService.NeighboringWindow 60
param *.traci.core.version -1
param *.traci.launcher.typename "\"PosixLauncher\""
param *.playgroundSizeX 4000m
param *.playgroundSizeY 4000m
param *.playgroundSizeZ 50m
param *.connectionManager.maxInterfDist 1500m
param *.connectionManager.sendDirect true
param *.connectionManager.coreDebug false

scalar World.node[2].appl.middleware.CaService #cam_sent 56
scalar World.node[2].appl.middleware.ExampleService #full_proofs 0
scalar World.node[2].appl.middleware.ExampleService #half_proofs 0
scalar World.node[2].appl.middleware.ExampleService #failed_proofs 0
scalar World.node[2].appl.middleware.ExampleService #loc_proof_send 0
scalar World.node[2].nic.phy80211p busyTime 0.0019013333333333
scalar World.node[2].nic.mac1609_4 ReceivedUnicastPackets 0
scalar World.node[2].nic.mac1609_4 ReceivedBroadcasts 58
scalar World.node[2].nic.mac1609_4 SentPackets 56
scalar World.node[2].nic.mac1609_4 SentAcknowledgements 0
scalar World.node[2].nic.mac1609_4 SNIRLostPackets 154
scalar World.node[2].nic.mac1609_4 RXTXLostPackets 0
scalar World.node[2].nic.mac1609_4 TotalLostPackets 154
scalar World.node[2].nic.mac1609_4 DroppedPacketsInMac 0
scalar World.node[2].nic.mac1609_4 TooLittleTime 0
scalar World.node[2].nic.mac1609_4 TimesIntoBackoff 56
scalar World.node[2].nic.mac1609_4 SlotsBackoff 371
scalar World.node[2].nic.mac1609_4 NumInternalContention 0
scalar World.node[2].nic.mac1609_4 totalBusyTime 0.043224
scalar World.node[3].appl.middleware.CaService #cam_sent 94
scalar World.node[3].appl.middleware.ExampleService #full_proofs 0
scalar World.node[3].appl.middleware.ExampleService #half_proofs 0
scalar World.node[3].appl.middleware.ExampleService #failed_proofs 1
scalar World.node[3].appl.middleware.ExampleService #loc_proof_send 1
scalar World.node[3].nic.phy80211p busyTime 0.0029708571428571
scalar World.node[3].nic.mac1609_4 ReceivedUnicastPackets 0
scalar World.node[3].nic.mac1609_4 ReceivedBroadcasts 465
scalar World.node[3].nic.mac1609_4 SentPackets 95
scalar World.node[3].nic.mac1609_4 SentAcknowledgements 0
scalar World.node[3].nic.mac1609_4 SNIRLostPackets 45
scalar World.node[3].nic.mac1609_4 RXTXLostPackets 0
scalar World.node[3].nic.mac1609_4 TotalLostPackets 45
scalar World.node[3].nic.mac1609_4 DroppedPacketsInMac 0
scalar World.node[3].nic.mac1609_4 TooLittleTime 0
scalar World.node[3].nic.mac1609_4 TimesIntoBackoff 95
scalar World.node[3].nic.mac1609_4 SlotsBackoff 701
scalar World.node[3].nic.mac1609_4 NumInternalContention 0
scalar World.node[3].nic.mac1609_4 totalBusyTime 0.098519
scalar World.node[9].appl.middleware.CaService #cam_sent 104
scalar World.node[9].appl.middleware.ExampleService #full_proofs 0
scalar World.node[9].appl.middleware.ExampleService #half_proofs 0
scalar World.node[9].appl.middleware.ExampleService #failed_proofs 0
scalar World.node[9].appl.middleware.ExampleService #loc_proof_send 4
scalar World.node[9].nic.phy80211p busyTime 0.0056105806451612
scalar World.node[9].nic.mac1609_4 ReceivedUnicastPackets 0
scalar World.node[9].nic.mac1609_4 ReceivedBroadcasts 998
scalar World.node[9].nic.mac1609_4 SentPackets 108
scalar World.node[9].nic.mac1609_4 SentAcknowledgements 0
scalar World.node[9].nic.mac1609_4 SNIRLostPackets 74
scalar World.node[9].nic.mac1609_4 RXTXLostPackets 17
scalar World.node[9].nic.mac1609_4 TotalLostPackets 91
scalar World.node[9].nic.mac1609_4 DroppedPacketsInMac 0
scalar World.node[9].nic.mac1609_4 TooLittleTime 0
scalar World.node[9].nic.mac1609_4 TimesIntoBackoff 109
scalar World.node[9].nic.mac1609_4 SlotsBackoff 861
scalar World.node[9].nic.mac1609_4 NumInternalContention 0
scalar World.node[9].nic.mac1609_4 totalBusyTime 0.190908
scalar World.node[21].appl.middleware.CaService #cam_sent 34
scalar World.node[21].appl.middleware.ExampleService #full_proofs 0
scalar World.node[21].appl.middleware.ExampleService #half_proofs 1
scalar World.node[21].appl.middleware.ExampleService #failed_proofs 0
scalar World.node[21].appl.middleware.ExampleService #loc_proof_send 2
scalar World.node[21].nic.phy80211p busyTime 0.0081592
scalar World.node[21].nic.mac1609_4 ReceivedUnicastPackets 0
scalar World.node[21].nic.mac1609_4 ReceivedBroadcasts 499
scalar World.node[21].nic.mac1609_4 SentPackets 36
scalar World.node[21].nic.mac1609_4 SentAcknowledgements 0
scalar World.node[21].nic.mac1609_4 SNIRLostPackets 9
scalar World.node[21].nic.mac1609_4 RXTXLostPackets 16
scalar World.node[21].nic.mac1609_4 TotalLostPackets 25
scalar World.node[21].nic.mac1609_4 DroppedPacketsInMac 0
scalar World.node[21].nic.mac1609_4 TooLittleTime 0
scalar World.node[21].nic.mac1609_4 TimesIntoBackoff 36
scalar World.node[21].nic.mac1609_4 SlotsBackoff 273
scalar World.node[21].nic.mac1609_4 NumInternalContention 0
scalar World.node[21].nic.mac1609_4 totalBusyTime 0.086556
scalar World.node[0].appl.middleware.CaService #cam_sent 208
scalar World.node[0].appl.middleware.ExampleService #full_proofs 0
scalar World.node[0].appl.middleware.ExampleService #half_proofs 2
scalar World.node[0].appl.middleware.ExampleService #failed_proofs 0
scalar World.node[0].appl.middleware.ExampleService #loc_proof_send 21
scalar World.node[0].nic.phy80211p busyTime 0.0057952452830188
scalar World.node[0].nic.mac1609_4 ReceivedUnicastPackets 0
scalar World.node[0].nic.mac1609_4 ReceivedBroadcasts 3626
scalar World.node[0].nic.mac1609_4 SentPackets 229
scalar World.node[0].nic.mac1609_4 SentAcknowledgements 0
scalar World.node[0].nic.mac1609_4 SNIRLostPackets 198
scalar World.node[0].nic.mac1609_4 RXTXLostPackets 120
scalar World.node[0].nic.mac1609_4 TotalLostPackets 318
scalar World.node[0].nic.mac1609_4 DroppedPacketsInMac 0
scalar World.node[0].nic.mac1609_4 TooLittleTime 0
scalar World.node[0].nic.mac1609_4 TimesIntoBackoff 230
scalar World.node[0].nic.mac1609_4 SlotsBackoff 1847
scalar World.node[0].nic.mac1609_4 NumInternalContention 0
scalar World.node[0].nic.mac1609_4 totalBusyTime 0.644517143115
scalar World.node[1].appl.middleware.CaService #cam_sent 274
scalar World.node[1].appl.middleware.ExampleService #full_proofs 0
scalar World.node[1].appl.middleware.ExampleService #half_proofs 1
scalar World.node[1].appl.middleware.ExampleService #failed_proofs 0
scalar World.node[1].appl.middleware.ExampleService #loc_proof_send 20
scalar World.node[1].nic.phy80211p busyTime 0.006000838095238
scalar World.node[1].nic.mac1609_4 ReceivedUnicastPackets 0
scalar World.node[1].nic.mac1609_4 ReceivedBroadcasts 3295
scalar World.node[1].nic.mac1609_4 SentPackets 294
scalar World.node[1].nic.mac1609_4 SentAcknowledgements 0
scalar World.node[1].nic.mac1609_4 SNIRLostPackets 637
scalar World.node[1].nic.mac1609_4 RXTXLostPackets 102
scalar World.node[1].nic.mac1609_4 TotalLostPackets 739
scalar World.node[1].nic.mac1609_4 DroppedPacketsInMac 0
scalar World.node[1].nic.mac1609_4 TooLittleTime 0
scalar World.node[1].nic.mac1609_4 TimesIntoBackoff 297
scalar World.node[1].nic.mac1609_4 SlotsBackoff 2266
scalar World.node[1].nic.mac1609_4 NumInternalContention 0
scalar World.node[1].nic.mac1609_4 totalBusyTime 0.666942623716
scalar World.node[6].appl.middleware.CaService #cam_sent 342
scalar World.node[6].appl.middleware.ExampleService #full_proofs 0
scalar World.node[6].appl.middleware.ExampleService #half_proofs 1
scalar World.node[6].appl.middleware.ExampleService #failed_proofs 0
scalar World.node[6].appl.middleware.ExampleService #loc_proof_send 35
scalar World.node[6].nic.phy80211p busyTime 0.0086198319327731
scalar World.node[6].nic.mac1609_4 ReceivedUnicastPackets 0
scalar World.node[6].nic.mac1609_4 ReceivedBroadcasts 6082
scalar World.node[6].nic.mac1609_4 SentPackets 377
scalar World.node[6].nic.mac1609_4 SentAcknowledgements 0
scalar World.node[6].nic.mac1609_4 SNIRLostPackets 367
scalar World.node[6].nic.mac1609_4 RXTXLostPackets 182
scalar World.node[6].nic.mac1609_4 TotalLostPackets 549
scalar World.node[6].nic.mac1609_4 DroppedPacketsInMac 0
scalar World.node[6].nic.mac1609_4 TooLittleTime 0
scalar World.node[6].nic.mac1609_4 TimesIntoBackoff 381
scalar World.node[6].nic.mac1609_4 SlotsBackoff 2762
scalar World.node[6].nic.mac1609_4 NumInternalContention 0
scalar World.node[6].nic.mac1609_4 totalBusyTime 1.061433100628
scalar World.node[19].appl.middleware.CaService #cam_sent 210
scalar World.node[19].appl.middleware.ExampleService #full_proofs 0
scalar World.node[19].appl.middleware.ExampleService #half_proofs 1
scalar World.node[19].appl.middleware.ExampleService #failed_proofs 0
scalar World.node[19].appl.middleware.ExampleService #loc_proof_send 29
scalar World.node[19].nic.phy80211p busyTime 0.011040736842105
scalar World.node[19].nic.mac1609_4 ReceivedUnicastPackets 0
scalar World.node[19].nic.mac1609_4 ReceivedBroadcasts 4616
scalar World.node[19].nic.mac1609_4 SentPackets 239
scalar World.node[19].nic.mac1609_4 SentAcknowledgements 0
scalar World.node[19].nic.mac1609_4 SNIRLostPackets 703
scalar World.node[19].nic.mac1609_4 RXTXLostPackets 181
scalar World.node[19].nic.mac1609_4 TotalLostPackets 884
scalar World.node[19].nic.mac1609_4 DroppedPacketsInMac 0
scalar World.node[19].nic.mac1609_4 TooLittleTime 0
scalar World.node[19].nic.mac1609_4 TimesIntoBackoff 248
scalar World.node[19].nic.mac1609_4 SlotsBackoff 1819
scalar World.node[19].nic.mac1609_4 NumInternalContention 0
scalar World.node[19].nic.mac1609_4 totalBusyTime 0.849391243691
scalar World.node[22].appl.middleware.CaService #cam_sent 188
scalar World.node[22].appl.middleware.ExampleService #full_proofs 0
scalar World.node[22].appl.middleware.ExampleService #half_proofs 1
scalar World.node[22].appl.middleware.ExampleService #failed_proofs 0
scalar World.node[22].appl.middleware.ExampleService #loc_proof_send 18
scalar World.node[22].nic.phy80211p busyTime 0.012107571428571
scalar World.node[22].nic.mac1609_4 ReceivedUnicastPackets 0
scalar World.node[22].nic.mac1609_4 ReceivedBroadcasts 3537
scalar World.node[22].nic.mac1609_4 SentPackets 206
scalar World.node[22].nic.mac1609_4 SentAcknowledgements 0
scalar World.node[22].nic.mac1609_4 SNIRLostPackets 779
scalar World.node[22].nic.mac1609_4 RXTXLostPackets 89
scalar World.node[22].nic.mac1609_4 TotalLostPackets 868
scalar World.node[22].nic.mac1609_4 DroppedPacketsInMac 0
scalar World.node[22].nic.mac1609_4 TooLittleTime 0
scalar World.node[22].nic.mac1609_4 TimesIntoBackoff 208
scalar World.node[22].nic.mac1609_4 SlotsBackoff 1596
scalar World.node[22].nic.mac1609_4 NumInternalContention 0
scalar World.node[22].nic.mac1609_4 totalBusyTime 0.680126057553
scalar World.node[13].appl.middleware.CaService #cam_sent 337
scalar World.node[13].appl.middleware.ExampleService #full_proofs 0
scalar World.node[13].appl.middleware.ExampleService #half_proofs 2
scalar World.node[13].appl.middleware.ExampleService #failed_proofs 0
scalar World.node[13].appl.middleware.ExampleService #loc_proof_send 38
scalar World.node[13].nic.phy80211p busyTime 0.01010681081081
scalar World.node[13].nic.mac1609_4 ReceivedUnicastPackets 0
scalar World.node[13].nic.mac1609_4 ReceivedBroadcasts 6539
scalar World.node[13].nic.mac1609_4 SentPackets 375
scalar World.node[13].nic.mac1609_4 SentAcknowledgements 0
scalar World.node[13].nic.mac1609_4 SNIRLostPackets 526
scalar World.node[13].nic.mac1609_4 RXTXLostPackets 243
scalar World.node[13].nic.mac1609_4 TotalLostPackets 769
scalar World.node[13].nic.mac1609_4 DroppedPacketsInMac 0
scalar World.node[13].nic.mac1609_4 TooLittleTime 0
scalar World.node[13].nic.mac1609_4 TimesIntoBackoff 388
scalar World.node[13].nic.mac1609_4 SlotsBackoff 2663
scalar World.node[13].nic.mac1609_4 NumInternalContention 0
scalar World.node[13].nic.mac1609_4 totalBusyTime 1.151263895493
scalar World.node[8].appl.middleware.CaService #cam_sent 352
scalar World.node[8].appl.middleware.ExampleService #full_proofs 0
scalar World.node[8].appl.middleware.ExampleService #half_proofs 2
scalar World.node[8].appl.middleware.ExampleService #failed_proofs 0
scalar World.node[8].appl.middleware.ExampleService #loc_proof_send 45
scalar World.node[8].nic.phy80211p busyTime 0.0098608235294112
scalar World.node[8].nic.mac1609_4 ReceivedUnicastPackets 0
scalar World.node[8].nic.mac1609_4 ReceivedBroadcasts 7341
scalar World.node[8].nic.mac1609_4 SentPackets 397
scalar World.node[8].nic.mac1609_4 SentAcknowledgements 0
scalar World.node[8].nic.mac1609_4 SNIRLostPackets 1122
scalar World.node[8].nic.mac1609_4 RXTXLostPackets 290
scalar World.node[8].nic.mac1609_4 TotalLostPackets 1412
scalar World.node[8].nic.mac1609_4 DroppedPacketsInMac 0
scalar World.node[8].nic.mac1609_4 TooLittleTime 0
scalar World.node[8].nic.mac1609_4 TimesIntoBackoff 407
scalar World.node[8].nic.mac1609_4 SlotsBackoff 2925
scalar World.node[8].nic.mac1609_4 NumInternalContention 0
scalar World.node[8].nic.mac1609_4 totalBusyTime 1.359733477091
scalar World.node[35].appl.middleware.CaService #cam_sent 144
scalar World.node[35].appl.middleware.ExampleService #full_proofs 0
scalar World.node[35].appl.middleware.ExampleService #half_proofs 1
scalar World.node[35].appl.middleware.ExampleService #failed_proofs 0
scalar World.node[35].appl.middleware.ExampleService #loc_proof_send 21
scalar World.node[35].nic.phy80211p busyTime 0.013709953488372
scalar World.node[35].nic.mac1609_4 ReceivedUnicastPackets 0
scalar World.node[35].nic.mac1609_4 ReceivedBroadcasts 3336
scalar World.node[35].nic.mac1609_4 SentPackets 165
scalar World.node[35].nic.mac1609_4 SentAcknowledgements 0
scalar World.node[35].nic.mac1609_4 SNIRLostPackets 415
scalar World.node[35].nic.mac1609_4 RXTXLostPackets 161
scalar World.node[35].nic.mac1609_4 TotalLostPackets 576
scalar World.node[35].nic.mac1609_4 DroppedPacketsInMac 0
scalar World.node[35].nic.mac1609_4 TooLittleTime 0
scalar World.node[35].nic.mac1609_4 TimesIntoBackoff 174
scalar World.node[35].nic.mac1609_4 SlotsBackoff 1311
scalar World.node[35].nic.mac1609_4 NumInternalContention 0
scalar World.node[35].nic.mac1609_4 totalBusyTime 0.587861118507
scalar World.node[15].appl.middleware.CaService #cam_sent 409
scalar World.node[15].appl.middleware.ExampleService #full_proofs 0
scalar World.node[15].appl.middleware.ExampleService #half_proofs 2
scalar World.node[15].appl.middleware.ExampleService #failed_proofs 0
scalar World.node[15].appl.middleware.ExampleService #loc_proof_send 46
scalar World.node[15].nic.phy80211p busyTime 0.011070029850745
scalar World.node[15].nic.mac1609_4 ReceivedUnicastPackets 0
scalar World.node[15].nic.mac1609_4 ReceivedBroadcasts 8379
scalar World.node[15].nic.mac1609_4 SentPackets 455
scalar World.node[15].nic.mac1609_4 SentAcknowledgements 0
scalar World.node[15].nic.mac1609_4 SNIRLostPackets 996
scalar World.node[15].nic.mac1609_4 RXTXLostPackets 317
scalar World.node[15].nic.mac1609_4 TotalLostPackets 1313
scalar World.node[15].nic.mac1609_4 DroppedPacketsInMac 0
scalar World.node[15].nic.mac1609_4 TooLittleTime 0
scalar World.node[15].nic.mac1609_4 TimesIntoBackoff 530
scalar World.node[15].nic.mac1609_4 SlotsBackoff 3929
scalar World.node[15].nic.mac1609_4 NumInternalContention 0
scalar World.node[15].nic.mac1609_4 totalBusyTime 1.503751559214
scalar World.node[16].appl.middleware.CaService #cam_sent 351
scalar World.node[16].appl.middleware.ExampleService #full_proofs 0
scalar World.node[16].appl.middleware.ExampleService #half_proofs 2
scalar World.node[16].appl.middleware.ExampleService #failed_proofs 0
scalar World.node[16].appl.middleware.ExampleService #loc_proof_send 42
scalar World.node[16].nic.phy80211p busyTime 0.011273709923663
scalar World.node[16].nic.mac1609_4 ReceivedUnicastPackets 0
scalar World.node[16].nic.mac1609_4 ReceivedBroadcasts 6916
scalar World.node[16].nic.mac1609_4 SentPackets 393
scalar World.node[16].nic.mac1609_4 SentAcknowledgements 0
scalar World.node[16].nic.mac1609_4 SNIRLostPackets 2428
scalar World.node[16].nic.mac1609_4 RXTXLostPackets 274
scalar World.node[16].nic.mac1609_4 TotalLostPackets 2702
scalar World.node[16].nic.mac1609_4 DroppedPacketsInMac 0
scalar World.node[16].nic.mac1609_4 TooLittleTime 0
scalar World.node[16].nic.mac1609_4 TimesIntoBackoff 402
scalar World.node[16].nic.mac1609_4 SlotsBackoff 3065
scalar World.node[16].nic.mac1609_4 NumInternalContention 0
scalar World.node[16].nic.mac1609_4 totalBusyTime 1.482697785348
scalar World.node[40].appl.middleware.CaService #cam_sent 92
scalar World.node[40].appl.middleware.ExampleService #full_proofs 0
scalar World.node[40].appl.middleware.ExampleService #half_proofs 1
scalar World.node[40].appl.middleware.ExampleService #failed_proofs 0
scalar World.node[40].appl.middleware.ExampleService #loc_proof_send 9
scalar World.node[40].nic.phy80211p busyTime 0.013803851851852
scalar World.node[40].nic.mac1609_4 ReceivedUnicastPackets 0
scalar World.node[40].nic.mac1609_4 ReceivedBroadcasts 2007
scalar World.node[40].nic.mac1609_4 SentPackets 101
scalar World.node[40].nic.mac1609_4 SentAcknowledgements 0
scalar World.node[40].nic.mac1609_4 SNIRLostPackets 361
scalar World.node[40].nic.mac1609_4 RXTXLostPackets 65
scalar World.node[40].nic.mac1609_4 TotalLostPackets 426
scalar World.node[40].nic.mac1609_4 DroppedPacketsInMac 0
scalar World.node[40].nic.mac1609_4 TooLittleTime 0
scalar World.node[40].nic.mac1609_4 TimesIntoBackoff 102
scalar World.node[40].nic.mac1609_4 SlotsBackoff 807
scalar World.node[40].nic.mac1609_4 NumInternalContention 0
scalar World.node[40].nic.mac1609_4 totalBusyTime 0.369661628112
scalar World.node[14].appl.middleware.CaService #cam_sent 482
scalar World.node[14].appl.middleware.ExampleService #full_proofs 0
scalar World.node[14].appl.middleware.ExampleService #half_proofs 1
scalar World.node[14].appl.middleware.ExampleService #failed_proofs 1
scalar World.node[14].appl.middleware.ExampleService #loc_proof_send 47
scalar World.node[14].nic.phy80211p busyTime 0.011154944444443
scalar World.node[14].nic.mac1609_4 ReceivedUnicastPackets 0
scalar World.node[14].nic.mac1609_4 ReceivedBroadcasts 8360
scalar World.node[14].nic.mac1609_4 SentPackets 529
scalar World.node[14].nic.mac1609_4 SentAcknowledgements 0
scalar World.node[14].nic.mac1609_4 SNIRLostPackets 1773
scalar World.node[14].nic.mac1609_4 RXTXLostPackets 398
scalar World.node[14].nic.mac1609_4 TotalLostPackets 2171
scalar World.node[14].nic.mac1609_4 DroppedPacketsInMac 0
scalar World.node[14].nic.mac1609_4 TooLittleTime 0
scalar World.node[14].nic.mac1609_4 TimesIntoBackoff 540
scalar World.node[14].nic.mac1609_4 SlotsBackoff 4227
scalar World.node[14].nic.mac1609_4 NumInternalContention 0
scalar World.node[14].nic.mac1609_4 totalBusyTime 1.640337262847
scalar World.node[10].appl.middleware.CaService #cam_sent 399
scalar World.node[10].appl.middleware.ExampleService #full_proofs 0
scalar World.node[10].appl.middleware.ExampleService #half_proofs 2
scalar World.node[10].appl.middleware.ExampleService #failed_proofs 0
scalar World.node[10].appl.middleware.ExampleService #loc_proof_send 49
scalar World.node[10].nic.phy80211p busyTime 0.010867371069181
scalar World.node[10].nic.mac1609_4 ReceivedUnicastPackets 0
scalar World.node[10].nic.mac1609_4 ReceivedBroadcasts 9263
scalar World.node[10].nic.mac1609_4 SentPackets 448
scalar World.node[10].nic.mac1609_4 SentAcknowledgements 0
scalar World.node[10].nic.mac1609_4 SNIRLostPackets 1612
scalar World.node[10].nic.mac1609_4 RXTXLostPackets 469
scalar World.node[10].nic.mac1609_4 TotalLostPackets 2081
scalar World.node[10].nic.mac1609_4 DroppedPacketsInMac 0
scalar World.node[10].nic.mac1609_4 TooLittleTime 0
scalar World.node[10].nic.mac1609_4 TimesIntoBackoff 554
scalar World.node[10].nic.mac1609_4 SlotsBackoff 3932
scalar World.node[10].nic.mac1609_4 NumInternalContention 0
scalar World.node[10].nic.mac1609_4 totalBusyTime 1.751840041704
scalar World.node[7].appl.middleware.CaService #cam_sent 484
scalar World.node[7].appl.middleware.ExampleService #full_proofs 0
scalar World.node[7].appl.middleware.ExampleService #half_proofs 3
scalar World.node[7].appl.middleware.ExampleService #failed_proofs 0
scalar World.node[7].appl.middleware.ExampleService #loc_proof_send 58
scalar World.node[7].nic.phy80211p busyTime 0.010750734463275
scalar World.node[7].nic.mac1609_4 ReceivedUnicastPackets 0
scalar World.node[7].nic.mac1609_4 ReceivedBroadcasts 10588
scalar World.node[7].nic.mac1609_4 SentPackets 542
scalar World.node[7].nic.mac1609_4 SentAcknowledgements 0
scalar World.node[7].nic.mac1609_4 SNIRLostPackets 1376
scalar World.node[7].nic.mac1609_4 RXTXLostPackets 504
scalar World.node[7].nic.mac1609_4 TotalLostPackets 1880
scalar World.node[7].nic.mac1609_4 DroppedPacketsInMac 0
scalar World.node[7].nic.mac1609_4 TooLittleTime 0
scalar World.node[7].nic.mac1609_4 TimesIntoBackoff 552
scalar World.node[7].nic.mac1609_4 SlotsBackoff 4236
scalar World.node[7].nic.mac1609_4 NumInternalContention 0
scalar World.node[7].nic.mac1609_4 totalBusyTime 1.936206667738
scalar World.node[30].appl.middleware.CaService #cam_sent 275
scalar World.node[30].appl.middleware.ExampleService #full_proofs 0
scalar World.node[30].appl.middleware.ExampleService #half_proofs 1
scalar World.node[30].appl.middleware.ExampleService #failed_proofs 0
scalar World.node[30].appl.middleware.ExampleService #loc_proof_send 39
scalar World.node[30].nic.phy80211p busyTime 0.014246505494505
scalar World.node[30].nic.mac1609_4 ReceivedUnicastPackets 0
scalar World.node[30].nic.mac1609_4 ReceivedBroadcasts 6833
scalar World.node[30].nic.mac1609_4 SentPackets 314
scalar World.node[30].nic.mac1609_4 SentAcknowledgements 0
scalar World.node[30].nic.mac1609_4 SNIRLostPackets 1386
scalar World.node[30].nic.mac1609_4 RXTXLostPackets 414
scalar World.node[30].nic.mac1609_4 TotalLostPackets 1800
scalar World.node[30].nic.mac1609_4 DroppedPacketsInMac 0
scalar World.node[30].nic.mac1609_4 TooLittleTime 0
scalar World.node[30].nic.mac1609_4 TimesIntoBackoff 337
scalar World.node[30].nic.mac1609_4 SlotsBackoff 2506
scalar World.node[30].nic.mac1609_4 NumInternalContention 0
scalar World.node[30].nic.mac1609_4 totalBusyTime 1.29999489635
scalar World.node[27].appl.middleware.CaService #cam_sent 374
scalar World.node[27].appl.middleware.ExampleService #full_proofs 0
scalar World.node[27].appl.middleware.ExampleService #half_proofs 2
scalar World.node[27].appl.middleware.ExampleService #failed_proofs 0
scalar World.node[27].appl.middleware.ExampleService #loc_proof_send 54
scalar World.node[27].nic.phy80211p busyTime 0.014453310924368
scalar World.node[27].nic.mac1609_4 ReceivedUnicastPackets 0
scalar World.node[27].nic.mac1609_4 ReceivedBroadcasts 9020
scalar World.node[27].nic.mac1609_4 SentPackets 428
scalar World.node[27].nic.mac1609_4 SentAcknowledgements 0
scalar World.node[27].nic.mac1609_4 SNIRLostPackets 1927
scalar World.node[27].nic.mac1609_4 RXTXLostPackets 441
scalar World.node[27].nic.mac1609_4 TotalLostPackets 2368
scalar World.node[27].nic.mac1609_4 DroppedPacketsInMac 0
scalar World.node[27].nic.mac1609_4 TooLittleTime 0
scalar World.node[27].nic.mac1609_4 TimesIntoBackoff 435
scalar World.node[27].nic.mac1609_4 SlotsBackoff 3275
scalar World.node[27].nic.mac1609_4 NumInternalContention 0
scalar World.node[27].nic.mac1609_4 totalBusyTime 1.709365851251
scalar World.node[33].appl.middleware.CaService #cam_sent 252
scalar World.node[33].appl.middleware.ExampleService #full_proofs 0
scalar World.node[33].appl.middleware.ExampleService #half_proofs 2
scalar World.node[33].appl.middleware.ExampleService #failed_proofs 0
scalar World.node[33].appl.middleware.ExampleService #loc_proof_send 49
scalar World.node[33].nic.phy80211p busyTime 0.015213252525251
scalar World.node[33].nic.mac1609_4 ReceivedUnicastPackets 0
scalar World.node[33].nic.mac1609_4 ReceivedBroadcasts 7805
scalar World.node[33].nic.mac1609_4 SentPackets 301
scalar World.node[33].nic.mac1609_4 SentAcknowledgements 0
scalar World.node[33].nic.mac1609_4 SNIRLostPackets 1794
scalar World.node[33].nic.mac1609_4 RXTXLostPackets 505
scalar World.node[33].nic.mac1609_4 TotalLostPackets 2299
scalar World.node[33].nic.mac1609_4 DroppedPacketsInMac 0
scalar World.node[33].nic.mac1609_4 TooLittleTime 0
scalar World.node[33].nic.mac1609_4 TimesIntoBackoff 307
scalar World.node[33].nic.mac1609_4 SlotsBackoff 2458
scalar World.node[33].nic.mac1609_4 NumInternalContention 0
scalar World.node[33].nic.mac1609_4 totalBusyTime 1.48728605111
scalar World.node[31].appl.middleware.CaService #cam_sent 373
scalar World.node[31].appl.middleware.ExampleService #full_proofs 0
scalar World.node[31].appl.middleware.ExampleService #half_proofs 2
scalar World.node[31].appl.middleware.ExampleService #failed_proofs 0
scalar World.node[31].appl.middleware.ExampleService #loc_proof_send 58
scalar World.node[31].nic.phy80211p busyTime 0.015353288135591
scalar World.node[31].nic.mac1609_4 ReceivedUnicastPackets 0
scalar World.node[31].nic.mac1609_4 ReceivedBroadcasts 9704
scalar World.node[31].nic.mac1609_4 SentPackets 431
scalar World.node[31].nic.mac1609_4 SentAcknowledgements 0
scalar World.node[31].nic.mac1609_4 SNIRLostPackets 1866
scalar World.node[31].nic.mac1609_4 RXTXLostPackets 347
scalar World.node[31].nic.mac1609_4 TotalLostPackets 2213
scalar World.node[31].nic.mac1609_4 DroppedPacketsInMac 0
scalar World.node[31].nic.mac1609_4 TooLittleTime 0
scalar World.node[31].nic.mac1609_4 TimesIntoBackoff 438
scalar World.node[31].nic.mac1609_4 SlotsBackoff 3304
scalar World.node[31].nic.mac1609_4 NumInternalContention 0
scalar World.node[31].nic.mac1609_4 totalBusyTime 1.784936343093
scalar World.node[24].appl.middleware.CaService #cam_sent 424
scalar World.node[24].appl.middleware.ExampleService #full_proofs 0
scalar World.node[24].appl.middleware.ExampleService #half_proofs 2
scalar World.node[24].appl.middleware.ExampleService #failed_proofs 0
scalar World.node[24].appl.middleware.ExampleService #loc_proof_send 61
scalar World.node[24].nic.phy80211p busyTime 0.014542742857141
scalar World.node[24].nic.mac1609_4 ReceivedUnicastPackets 0
scalar World.node[24].nic.mac1609_4 ReceivedBroadcasts 10970
scalar World.node[24].nic.mac1609_4 SentPackets 485
scalar World.node[24].nic.mac1609_4 SentAcknowledgements 0
scalar World.node[24].nic.mac1609_4 SNIRLostPackets 1969
scalar World.node[24].nic.mac1609_4 RXTXLostPackets 466
scalar World.node[24].nic.mac1609_4 TotalLostPackets 2435
scalar World.node[24].nic.mac1609_4 DroppedPacketsInMac 0
scalar World.node[24].nic.mac1609_4 TooLittleTime 0
scalar World.node[24].nic.mac1609_4 TimesIntoBackoff 500
scalar World.node[24].nic.mac1609_4 SlotsBackoff 3675
scalar World.node[24].nic.mac1609_4 NumInternalContention 0
scalar World.node[24].nic.mac1609_4 totalBusyTime 2.023621745116
scalar World.node[12].appl.middleware.CaService #cam_sent 641
scalar World.node[12].appl.middleware.ExampleService #full_proofs 0
scalar World.node[12].appl.middleware.ExampleService #half_proofs 3
scalar World.node[12].appl.middleware.ExampleService #failed_proofs 0
scalar World.node[12].appl.middleware.ExampleService #loc_proof_send 71
scalar World.node[12].nic.phy80211p busyTime 0.012451175879396
scalar World.node[12].nic.mac1609_4 ReceivedUnicastPackets 0
scalar World.node[12].nic.mac1609_4 ReceivedBroadcasts 12524
scalar World.node[12].nic.mac1609_4 SentPackets 712
scalar World.node[12].nic.mac1609_4 SentAcknowledgements 0
scalar World.node[12].nic.mac1609_4 SNIRLostPackets 3161
scalar World.node[12].nic.mac1609_4 RXTXLostPackets 623
scalar World.node[12].nic.mac1609_4 TotalLostPackets 3784
scalar World.node[12].nic.mac1609_4 DroppedPacketsInMac 0
scalar World.node[12].nic.mac1609_4 TooLittleTime 0
scalar World.node[12].nic.mac1609_4 TimesIntoBackoff 747
scalar World.node[12].nic.mac1609_4 SlotsBackoff 5413
scalar World.node[12].nic.mac1609_4 NumInternalContention 0
scalar World.node[12].nic.mac1609_4 totalBusyTime 2.504585830984
scalar World.node[53].appl.middleware.CaService #cam_sent 108
scalar World.node[53].appl.middleware.ExampleService #full_proofs 0
scalar World.node[53].appl.middleware.ExampleService #half_proofs 1
scalar World.node[53].appl.middleware.ExampleService #failed_proofs 0
scalar World.node[53].appl.middleware.ExampleService #loc_proof_send 13
scalar World.node[53].nic.phy80211p busyTime 0.017288
scalar World.node[53].nic.mac1609_4 ReceivedUnicastPackets 0
scalar World.node[53].nic.mac1609_4 ReceivedBroadcasts 2375
scalar World.node[53].nic.mac1609_4 SentPackets 121
scalar World.node[53].nic.mac1609_4 SentAcknowledgements 0
scalar World.node[53].nic.mac1609_4 SNIRLostPackets 1131
scalar World.node[53].nic.mac1609_4 RXTXLostPackets 174
scalar World.node[53].nic.mac1609_4 TotalLostPackets 1305
scalar World.node[53].nic.mac1609_4 DroppedPacketsInMac 0
scalar World.node[53].nic.mac1609_4 TooLittleTime 0
scalar World.node[53].nic.mac1609_4 TimesIntoBackoff 131
scalar World.node[53].nic.mac1609_4 SlotsBackoff 1040
scalar World.node[53].nic.mac1609_4 NumInternalContention 0
scalar World.node[53].nic.mac1609_4 totalBusyTime 0.552505
scalar World.node[26].appl.middleware.CaService #cam_sent 411
scalar World.node[26].appl.middleware.ExampleService #full_proofs 0
scalar World.node[26].appl.middleware.ExampleService #half_proofs 2
scalar World.node[26].appl.middleware.ExampleService #failed_proofs 0
scalar World.node[26].appl.middleware.ExampleService #loc_proof_send 56
scalar World.node[26].nic.phy80211p busyTime 0.014873041095889
scalar World.node[26].nic.mac1609_4 ReceivedUnicastPackets 0
scalar World.node[26].nic.mac1609_4 ReceivedBroadcasts 9911
scalar World.node[26].nic.mac1609_4 SentPackets 467
scalar World.node[26].nic.mac1609_4 SentAcknowledgements 0
scalar World.node[26].nic.mac1609_4 SNIRLostPackets 3865
scalar World.node[26].nic.mac1609_4 RXTXLostPackets 685
scalar World.node[26].nic.mac1609_4 TotalLostPackets 4550
scalar World.node[26].nic.mac1609_4 DroppedPacketsInMac 0
scalar World.node[26].nic.mac1609_4 TooLittleTime 0
scalar World.node[26].nic.mac1609_4 TimesIntoBackoff 481
scalar World.node[26].nic.mac1609_4 SlotsBackoff 3737
scalar World.node[26].nic.mac1609_4 NumInternalContention 0
scalar World.node[26].nic.mac1609_4 totalBusyTime 2.162195225193
scalar World.node[38].appl.middleware.CaService #cam_sent 320
scalar World.node[38].appl.middleware.ExampleService #full_proofs 0
scalar World.node[38].appl.middleware.ExampleService #half_proofs 2
scalar World.node[38].appl.middleware.ExampleService #failed_proofs 0
scalar World.node[38].appl.middleware.ExampleService #loc_proof_send 52
scalar World.node[38].nic.phy80211p busyTime 0.016048879999998
scalar World.node[38].nic.mac1609_4 ReceivedUnicastPackets 0
scalar World.node[38].nic.mac1609_4 ReceivedBroadcasts 9062
scalar World.node[38].nic.mac1609_4 SentPackets 372
scalar World.node[38].nic.mac1609_4 SentAcknowledgements 0
scalar World.node[38].nic.mac1609_4 SNIRLostPackets 1165
scalar World.node[38].nic.mac1609_4 RXTXLostPackets 335
scalar World.node[38].nic.mac1609_4 TotalLostPackets 1500
scalar World.node[38].nic.mac1609_4 DroppedPacketsInMac 0
scalar World.node[38].nic.mac1609_4 TooLittleTime 0
scalar World.node[38].nic.mac1609_4 TimesIntoBackoff 377
scalar World.node[38].nic.mac1609_4 SlotsBackoff 2929
scalar World.node[38].nic.mac1609_4 NumInternalContention 0
scalar World.node[38].nic.mac1609_4 totalBusyTime 1.577430174362
scalar World.node[63].appl.middleware.CaService #cam_sent 38
scalar World.node[63].appl.middleware.ExampleService #full_proofs 0
scalar World.node[63].appl.middleware.ExampleService #half_proofs 0
scalar World.node[63].appl.middleware.ExampleService #failed_proofs 0
scalar World.node[63].appl.middleware.ExampleService #loc_proof_send 3
scalar World.node[63].nic.phy80211p busyTime 0.015290909090909
scalar World.node[63].nic.mac1609_4 ReceivedUnicastPackets 0
scalar World.node[63].nic.mac1609_4 ReceivedBroadcasts 879
scalar World.node[63].nic.mac1609_4 SentPackets 41
scalar World.node[63].nic.mac1609_4 SentAcknowledgements 0
scalar World.node[63].nic.mac1609_4 SNIRLostPackets 176
scalar World.node[63].nic.mac1609_4 RXTXLostPackets 30
scalar World.node[63].nic.mac1609_4 TotalLostPackets 206
scalar World.node[63].nic.mac1609_4 DroppedPacketsInMac 0
scalar World.node[63].nic.mac1609_4 TooLittleTime 0
scalar World.node[63].nic.mac1609_4 TimesIntoBackoff 41
scalar World.node[63].nic.mac1609_4 SlotsBackoff 338
scalar World.node[63].nic.mac1609_4 NumInternalContention 0
scalar World.node[63].nic.mac1609_4 totalBusyTime 0.169153180415
scalar World.node[54].appl.middleware.CaService #cam_sent 192
scalar World.node[54].appl.middleware.ExampleService #full_proofs 0
scalar World.node[54].appl.middleware.ExampleService #half_proofs 1
scalar World.node[54].appl.middleware.ExampleService #failed_proofs 0
scalar World.node[54].appl.middleware.ExampleService #loc_proof_send 31
scalar World.node[54].nic.phy80211p busyTime 0.016717333333333
scalar World.node[54].nic.mac1609_4 ReceivedUnicastPackets 0
scalar World.node[54].nic.mac1609_4 ReceivedBroadcasts 5250
scalar World.node[54].nic.mac1609_4 SentPackets 223
scalar World.node[54].nic.mac1609_4 SentAcknowledgements 0
scalar World.node[54].nic.mac1609_4 SNIRLostPackets 823
scalar World.node[54].nic.mac1609_4 RXTXLostPackets 390
scalar World.node[54].nic.mac1609_4 TotalLostPackets 1213
scalar World.node[54].nic.mac1609_4 DroppedPacketsInMac 0
scalar World.node[54].nic.mac1609_4 TooLittleTime 0
scalar World.node[54].nic.mac1609_4 TimesIntoBackoff 235
scalar World.node[54].nic.mac1609_4 SlotsBackoff 1777
scalar World.node[54].nic.mac1609_4 NumInternalContention 0
scalar World.node[54].nic.mac1609_4 totalBusyTime 0.942256145872
scalar World.node[20].appl.middleware.CaService #cam_sent 501
scalar World.node[20].appl.middleware.ExampleService #full_proofs 0
scalar World.node[20].appl.middleware.ExampleService #half_proofs 4
scalar World.node[20].appl.middleware.ExampleService #failed_proofs 0
scalar World.node[20].appl.middleware.ExampleService #loc_proof_send 91
scalar World.node[20].nic.phy80211p busyTime 0.014030050761421
scalar World.node[20].nic.mac1609_4 ReceivedUnicastPackets 0
scalar World.node[20].nic.mac1609_4 ReceivedBroadcasts 15672
scalar World.node[20].nic.mac1609_4 SentPackets 592
scalar World.node[20].nic.mac1609_4 SentAcknowledgements 0
scalar World.node[20].nic.mac1609_4 SNIRLostPackets 1796
scalar World.node[20].nic.mac1609_4 RXTXLostPackets 980
scalar World.node[20].nic.mac1609_4 TotalLostPackets 2776
scalar World.node[20].nic.mac1609_4 DroppedPacketsInMac 0
scalar World.node[20].nic.mac1609_4 TooLittleTime 0
scalar World.node[20].nic.mac1609_4 TimesIntoBackoff 610
scalar World.node[20].nic.mac1609_4 SlotsBackoff 4646
scalar World.node[20].nic.mac1609_4 NumInternalContention 0
scalar World.node[20].nic.mac1609_4 totalBusyTime 2.758810894944
scalar World.node[4].appl.middleware.CaService #cam_sent 722
scalar World.node[4].appl.middleware.ExampleService #full_proofs 0
scalar World.node[4].appl.middleware.ExampleService #half_proofs 4
scalar World.node[4].appl.middleware.ExampleService #failed_proofs 0
scalar World.node[4].appl.middleware.ExampleService #loc_proof_send 83
scalar World.node[4].nic.phy80211p busyTime 0.012130821705426
scalar World.node[4].nic.mac1609_4 ReceivedUnicastPackets 0
scalar World.node[4].nic.mac1609_4 ReceivedBroadcasts 14566
scalar World.node[4].nic.mac1609_4 SentPackets 805
scalar World.node[4].nic.mac1609_4 SentAcknowledgements 0
scalar World.node[4].nic.mac1609_4 SNIRLostPackets 5309
scalar World.node[4].nic.mac1609_4 RXTXLostPackets 605
scalar World.node[4].nic.mac1609_4 TotalLostPackets 5914
scalar World.node[4].nic.mac1609_4 DroppedPacketsInMac 0
scalar World.node[4].nic.mac1609_4 TooLittleTime 0
scalar World.node[4].nic.mac1609_4 TimesIntoBackoff 810
scalar World.node[4].nic.mac1609_4 SlotsBackoff 5805
scalar World.node[4].nic.mac1609_4 NumInternalContention 0
scalar World.node[4].nic.mac1609_4 totalBusyTime 3.113901792832
scalar World.node[36].appl.middleware.CaService #cam_sent 314
scalar World.node[36].appl.middleware.ExampleService #full_proofs 0
scalar World.node[36].appl.middleware.ExampleService #half_proofs 2
scalar World.node[36].appl.middleware.ExampleService #failed_proofs 0
scalar World.node[36].appl.middleware.ExampleService #loc_proof_send 60
scalar World.node[36].nic.phy80211p busyTime 0.015739753846152
scalar World.node[36].nic.mac1609_4 ReceivedUnicastPackets 0
scalar World.node[36].nic.mac1609_4 ReceivedBroadcasts 11190
scalar World.node[36].nic.mac1609_4 SentPackets 374
scalar World.node[36].nic.mac1609_4 SentAcknowledgements 0
scalar World.node[36].nic.mac1609_4 SNIRLostPackets 1756
scalar World.node[36].nic.mac1609_4 RXTXLostPackets 818
scalar World.node[36].nic.mac1609_4 TotalLostPackets 2574
scalar World.node[36].nic.mac1609_4 DroppedPacketsInMac 0
scalar World.node[36].nic.mac1609_4 TooLittleTime 0
scalar World.node[36].nic.mac1609_4 TimesIntoBackoff 386
scalar World.node[36].nic.mac1609_4 SlotsBackoff 2730
scalar World.node[36].nic.mac1609_4 NumInternalContention 0
scalar World.node[36].nic.mac1609_4 totalBusyTime 2.028200054008
scalar World.node[25].appl.middleware.CaService #cam_sent 507
scalar World.node[25].appl.middleware.ExampleService #full_proofs 0
scalar World.node[25].appl.middleware.ExampleService #half_proofs 2
scalar World.node[25].appl.middleware.ExampleService #failed_proofs 1
scalar World.node[25].appl.middleware.ExampleService #loc_proof_send 85
scalar World.node[25].nic.phy80211p busyTime 0.01512659090909
scalar World.node[25].nic.mac1609_4 ReceivedUnicastPackets 0
scalar World.node[25].nic.mac1609_4 ReceivedBroadcasts 14685
scalar World.node[25].nic.mac1609_4 SentPackets 592
scalar World.node[25].nic.mac1609_4 SentAcknowledgements 0
scalar World.node[25].nic.mac1609_4 SNIRLostPackets 2258
scalar World.node[25].nic.mac1609_4 RXTXLostPackets 710
scalar World.node[25].nic.mac1609_4 TotalLostPackets 2968
scalar World.node[25].nic.mac1609_4 DroppedPacketsInMac 0
scalar World.node[25].nic.mac1609_4 TooLittleTime 0
scalar World.node[25].nic.mac1609_4 TimesIntoBackoff 610
scalar World.node[25].nic.mac1609_4 SlotsBackoff 4557
scalar World.node[25].nic.mac1609_4 NumInternalContention 0
scalar World.node[25].nic.mac1609_4 totalBusyTime 2.629777216351
scalar World.node[11].appl.middleware.CaService #cam_sent 663
scalar World.node[11].appl.middleware.ExampleService #full_proofs 0
scalar World.node[11].appl.middleware.ExampleService #half_proofs 4
scalar World.node[11].appl.middleware.ExampleService #failed_proofs 0
scalar World.node[11].appl.middleware.ExampleService #loc_proof_send 93
scalar World.node[11].nic.phy80211p busyTime 0.013186456431536
scalar World.node[11].nic.mac1609_4 ReceivedUnicastPackets 0
scalar World.node[11].nic.mac1609_4 ReceivedBroadcasts 16166
scalar World.node[11].nic.mac1609_4 SentPackets 756
scalar World.node[11].nic.mac1609_4 SentAcknowledgements 0
scalar World.node[11].nic.mac1609_4 SNIRLostPackets 3967
scalar World.node[11].nic.mac1609_4 RXTXLostPackets 798
scalar World.node[11].nic.mac1609_4 TotalLostPackets 4765
scalar World.node[11].nic.mac1609_4 DroppedPacketsInMac 0
scalar World.node[11].nic.mac1609_4 TooLittleTime 0
scalar World.node[11].nic.mac1609_4 TimesIntoBackoff 769
scalar World.node[11].nic.mac1609_4 SlotsBackoff 5667
scalar World.node[11].nic.mac1609_4 NumInternalContention 0
scalar World.node[11].nic.mac1609_4 totalBusyTime 3.16028619528
scalar World.node[18].appl.middleware.CaService #cam_sent 538
scalar World.node[18].appl.middleware.ExampleService #full_proofs 0
scalar World.node[18].appl.middleware.ExampleService #half_proofs 3
scalar World.node[18].appl.middleware.ExampleService #failed_proofs 0
scalar World.node[18].appl.middleware.ExampleService #loc_proof_send 96
scalar World.node[18].nic.phy80211p busyTime 0.013968303317536
scalar World.node[18].nic.mac1609_4 ReceivedUnicastPackets 0
scalar World.node[18].nic.mac1609_4 ReceivedBroadcasts 16470
scalar World.node[18].nic.mac1609_4 SentPackets 634
scalar World.node[18].nic.mac1609_4 SentAcknowledgements 0
scalar World.node[18].nic.mac1609_4 SNIRLostPackets 2108
scalar World.node[18].nic.mac1609_4 RXTXLostPackets 1208
scalar World.node[18].nic.mac1609_4 TotalLostPackets 3316
scalar World.node[18].nic.mac1609_4 DroppedPacketsInMac 0
scalar World.node[18].nic.mac1609_4 TooLittleTime 0
scalar World.node[18].nic.mac1609_4 TimesIntoBackoff 660
scalar World.node[18].nic.mac1609_4 SlotsBackoff 5047
scalar World.node[18].nic.mac1609_4 NumInternalContention 0
scalar World.node[18].nic.mac1609_4 totalBusyTime 2.960083078456
scalar World.node[28].appl.middleware.CaService #cam_sent 419
scalar World.node[28].appl.middleware.ExampleService #full_proofs 0
scalar World.node[28].appl.middleware.ExampleService #half_proofs 3
scalar World.node[28].appl.middleware.ExampleService #failed_proofs 0
scalar World.node[28].appl.middleware.ExampleService #loc_proof_send 66
scalar World.node[28].nic.phy80211p busyTime 0.015755908045977
scalar World.node[28].nic.mac1609_4 ReceivedUnicastPackets 0
scalar World.node[28].nic.mac1609_4 ReceivedBroadcasts 11596
scalar World.node[28].nic.mac1609_4 SentPackets 485
scalar World.node[28].nic.mac1609_4 SentAcknowledgements 0
scalar World.node[28].nic.mac1609_4 SNIRLostPackets 5891
scalar World.node[28].nic.mac1609_4 RXTXLostPackets 671
scalar World.node[28].nic.mac1609_4 TotalLostPackets 6562
scalar World.node[28].nic.mac1609_4 DroppedPacketsInMac 0
scalar World.node[28].nic.mac1609_4 TooLittleTime 0
scalar World.node[28].nic.mac1609_4 TimesIntoBackoff 498
scalar World.node[28].nic.mac1609_4 SlotsBackoff 3767
scalar World.node[28].nic.mac1609_4 NumInternalContention 0
scalar World.node[28].nic.mac1609_4 totalBusyTime 2.674952903885
scalar World.node[56].appl.middleware.CaService #cam_sent 169
scalar World.node[56].appl.middleware.ExampleService #full_proofs 0
scalar World.node[56].appl.middleware.ExampleService #half_proofs 0
scalar World.node[56].appl.middleware.ExampleService #failed_proofs 1
scalar World.node[56].appl.middleware.ExampleService #loc_proof_send 40
scalar World.node[56].nic.phy80211p busyTime 0.017519999999999
scalar World.node[56].nic.mac1609_4 ReceivedUnicastPackets 0
scalar World.node[56].nic.mac1609_4 ReceivedBroadcasts 7259
scalar World.node[56].nic.mac1609_4 SentPackets 209
scalar World.node[56].nic.mac1609_4 SentAcknowledgements 0
scalar World.node[56].nic.mac1609_4 SNIRLostPackets 750
scalar World.node[56].nic.mac1609_4 RXTXLostPackets 464
scalar World.node[56].nic.mac1609_4 TotalLostPackets 1214
scalar World.node[56].nic.mac1609_4 DroppedPacketsInMac 0
scalar World.node[56].nic.mac1609_4 TooLittleTime 0
scalar World.node[56].nic.mac1609_4 TimesIntoBackoff 228
scalar World.node[56].nic.mac1609_4 SlotsBackoff 1777
scalar World.node[56].nic.mac1609_4 NumInternalContention 0
scalar World.node[56].nic.mac1609_4 totalBusyTime 1.237777866709
scalar World.node[5].appl.middleware.CaService #cam_sent 866
scalar World.node[5].appl.middleware.ExampleService #full_proofs 0
scalar World.node[5].appl.middleware.ExampleService #half_proofs 4
scalar World.node[5].appl.middleware.ExampleService #failed_proofs 0
scalar World.node[5].appl.middleware.ExampleService #loc_proof_send 113
scalar World.node[5].nic.phy80211p busyTime 0.012874869565218
scalar World.node[5].nic.mac1609_4 ReceivedUnicastPackets 0
scalar World.node[5].nic.mac1609_4 ReceivedBroadcasts 19513
scalar World.node[5].nic.mac1609_4 SentPackets 979
scalar World.node[5].nic.mac1609_4 SentAcknowledgements 0
scalar World.node[5].nic.mac1609_4 SNIRLostPackets 3074
scalar World.node[5].nic.mac1609_4 RXTXLostPackets 794
scalar World.node[5].nic.mac1609_4 TotalLostPackets 3868
scalar World.node[5].nic.mac1609_4 DroppedPacketsInMac 0
scalar World.node[5].nic.mac1609_4 TooLittleTime 0
scalar World.node[5].nic.mac1609_4 TimesIntoBackoff 989
scalar World.node[5].nic.mac1609_4 SlotsBackoff 7274
scalar World.node[5].nic.mac1609_4 NumInternalContention 0
scalar World.node[5].nic.mac1609_4 totalBusyTime 3.544291911695
scalar World.node[68].appl.middleware.CaService #cam_sent 92
scalar World.node[68].appl.middleware.ExampleService #full_proofs 0
scalar World.node[68].appl.middleware.ExampleService #half_proofs 0
scalar World.node[68].appl.middleware.ExampleService #failed_proofs 0
scalar World.node[68].appl.middleware.ExampleService #loc_proof_send 7
scalar World.node[68].nic.phy80211p busyTime 0.019074962962963
scalar World.node[68].nic.mac1609_4 ReceivedUnicastPackets 0
scalar World.node[68].nic.mac1609_4 ReceivedBroadcasts 1359
scalar World.node[68].nic.mac1609_4 SentPackets 99
scalar World.node[68].nic.mac1609_4 SentAcknowledgements 0
scalar World.node[68].nic.mac1609_4 SNIRLostPackets 1952
scalar World.node[68].nic.mac1609_4 RXTXLostPackets 103
scalar World.node[68].nic.mac1609_4 TotalLostPackets 2055
scalar World.node[68].nic.mac1609_4 DroppedPacketsInMac 0
scalar World.node[68].nic.mac1609_4 TooLittleTime 0
scalar World.node[68].nic.mac1609_4 TimesIntoBackoff 101
scalar World.node[68].nic.mac1609_4 SlotsBackoff 834
scalar World.node[68].nic.mac1609_4 NumInternalContention 0
scalar World.node[68].nic.mac1609_4 totalBusyTime 0.501259
scalar World.node[39].appl.middleware.CaService #cam_sent 424
scalar World.node[39].appl.middleware.ExampleService #full_proofs 0
scalar World.node[39].appl.middleware.ExampleService #half_proofs 2
scalar World.node[39].appl.middleware.ExampleService #failed_proofs 0
scalar World.node[39].appl.middleware.ExampleService #loc_proof_send 79
scalar World.node[39].nic.phy80211p busyTime 0.016457811320754
scalar World.node[39].nic.mac1609_4 ReceivedUnicastPackets 0
scalar World.node[39].nic.mac1609_4 ReceivedBroadcasts 13922
scalar World.node[39].nic.mac1609_4 SentPackets 503
scalar World.node[39].nic.mac1609_4 SentAcknowledgements 0
scalar World.node[39].nic.mac1609_4 SNIRLostPackets 2705
scalar World.node[39].nic.mac1609_4 RXTXLostPackets 986
scalar World.node[39].nic.mac1609_4 TotalLostPackets 3691
scalar World.node[39].nic.mac1609_4 DroppedPacketsInMac 0
scalar World.node[39].nic.mac1609_4 TooLittleTime 0
scalar World.node[39].nic.mac1609_4 TimesIntoBackoff 524
scalar World.node[39].nic.mac1609_4 SlotsBackoff 3957
scalar World.node[39].nic.mac1609_4 NumInternalContention 0
scalar World.node[39].nic.mac1609_4 totalBusyTime 2.585095916358
scalar World.node[67].appl.middleware.CaService #cam_sent 172
scalar World.node[67].appl.middleware.ExampleService #full_proofs 0
scalar World.node[67].appl.middleware.ExampleService #half_proofs 1
scalar World.node[67].appl.middleware.ExampleService #failed_proofs 0
scalar World.node[67].appl.middleware.ExampleService #loc_proof_send 20
scalar World.node[67].nic.phy80211p busyTime 0.018110431372549
scalar World.node[67].nic.mac1609_4 ReceivedUnicastPackets 0
scalar World.node[67].nic.mac1609_4 ReceivedBroadcasts 3435
scalar World.node[67].nic.mac1609_4 SentPackets 192
scalar World.node[67].nic.mac1609_4 SentAcknowledgements 0
scalar World.node[67].nic.mac1609_4 SNIRLostPackets 2512
scalar World.node[67].nic.mac1609_4 RXTXLostPackets 144
scalar World.node[67].nic.mac1609_4 TotalLostPackets 2656
scalar World.node[67].nic.mac1609_4 DroppedPacketsInMac 0
scalar World.node[67].nic.mac1609_4 TooLittleTime 0
scalar World.node[67].nic.mac1609_4 TimesIntoBackoff 197
scalar World.node[67].nic.mac1609_4 SlotsBackoff 1370
scalar World.node[67].nic.mac1609_4 NumInternalContention 0
scalar World.node[67].nic.mac1609_4 totalBusyTime 0.891096
scalar World.node[57].appl.middleware.CaService #cam_sent 236
scalar World.node[57].appl.middleware.ExampleService #full_proofs 0
scalar World.node[57].appl.middleware.ExampleService #half_proofs 1
scalar World.node[57].appl.middleware.ExampleService #failed_proofs 0
scalar World.node[57].appl.middleware.ExampleService #loc_proof_send 49
scalar World.node[57].nic.phy80211p busyTime 0.017470370370368
scalar World.node[57].nic.mac1609_4 ReceivedUnicastPackets 0
scalar World.node[57].nic.mac1609_4 ReceivedBroadcasts 9857
scalar World.node[57].nic.mac1609_4 SentPackets 285
scalar World.node[57].nic.mac1609_4 SentAcknowledgements 0
scalar World.node[57].nic.mac1609_4 SNIRLostPackets 2049
scalar World.node[57].nic.mac1609_4 RXTXLostPackets 696
scalar World.node[57].nic.mac1609_4 TotalLostPackets 2745
scalar World.node[57].nic.mac1609_4 DroppedPacketsInMac 0
scalar World.node[57].nic.mac1609_4 TooLittleTime 0
scalar World.node[57].nic.mac1609_4 TimesIntoBackoff 292
scalar World.node[57].nic.mac1609_4 SlotsBackoff 2242
scalar World.node[57].nic.mac1609_4 NumInternalContention 0
scalar World.node[57].nic.mac1609_4 totalBusyTime 1.8555997755
scalar World.node[32].appl.middleware.CaService #cam_sent 602
scalar World.node[32].appl.middleware.ExampleService #full_proofs 0
scalar World.node[32].appl.middleware.ExampleService #half_proofs 3
scalar World.node[32].appl.middleware.ExampleService #failed_proofs 0
scalar World.node[32].appl.middleware.ExampleService #loc_proof_send 95
scalar World.node[32].nic.phy80211p busyTime 0.016589383886256
scalar World.node[32].nic.mac1609_4 ReceivedUnicastPackets 0
scalar World.node[32].nic.mac1609_4 ReceivedBroadcasts 17895
scalar World.node[32].nic.mac1609_4 SentPackets 697
scalar World.node[32].nic.mac1609_4 SentAcknowledgements 0
scalar World.node[32].nic.mac1609_4 SNIRLostPackets 4469
scalar World.node[32].nic.mac1609_4 RXTXLostPackets 748
scalar World.node[32].nic.mac1609_4 TotalLostPackets 5217
scalar World.node[32].nic.mac1609_4 DroppedPacketsInMac 0
scalar World.node[32].nic.mac1609_4 TooLittleTime 0
scalar World.node[32].nic.mac1609_4 TimesIntoBackoff 715
scalar World.node[32].nic.mac1609_4 SlotsBackoff 5273
scalar World.node[32].nic.mac1609_4 NumInternalContention 0
scalar World.node[32].nic.mac1609_4 totalBusyTime 3.409218982024
scalar World.node[79].appl.middleware.CaService #cam_sent 88
scalar World.node[79].appl.middleware.ExampleService #full_proofs 0
scalar World.node[79].appl.middleware.ExampleService #half_proofs 0
scalar World.node[79].appl.middleware.ExampleService #failed_proofs 0
scalar World.node[79].appl.middleware.ExampleService #loc_proof_send 8
scalar World.node[79].nic.phy80211p busyTime 0.018911692307692
scalar World.node[79].nic.mac1609_4 ReceivedUnicastPackets 0
scalar World.node[79].nic.mac1609_4 ReceivedBroadcasts 2201
scalar World.node[79].nic.mac1609_4 SentPackets 96
scalar World.node[79].nic.mac1609_4 SentAcknowledgements 0
scalar World.node[79].nic.mac1609_4 SNIRLostPackets 902
scalar World.node[79].nic.mac1609_4 RXTXLostPackets 109
scalar World.node[79].nic.mac1609_4 TotalLostPackets 1011
scalar World.node[79].nic.mac1609_4 DroppedPacketsInMac 0
scalar World.node[79].nic.mac1609_4 TooLittleTime 0
scalar World.node[79].nic.mac1609_4 TimesIntoBackoff 99
scalar World.node[79].nic.mac1609_4 SlotsBackoff 708
scalar World.node[79].nic.mac1609_4 NumInternalContention 0
scalar World.node[79].nic.mac1609_4 totalBusyTime 0.483768094926
scalar World.node[23].appl.middleware.CaService #cam_sent 583
scalar World.node[23].appl.middleware.ExampleService #full_proofs 0
scalar World.node[23].appl.middleware.ExampleService #half_proofs 4
scalar World.node[23].appl.middleware.ExampleService #failed_proofs 0
scalar World.node[23].appl.middleware.ExampleService #loc_proof_send 111
scalar World.node[23].nic.phy80211p busyTime 0.015837473684212
scalar World.node[23].nic.mac1609_4 ReceivedUnicastPackets 0
scalar World.node[23].nic.mac1609_4 ReceivedBroadcasts 20442
scalar World.node[23].nic.mac1609_4 SentPackets 694
scalar World.node[23].nic.mac1609_4 SentAcknowledgements 0
scalar World.node[23].nic.mac1609_4 SNIRLostPackets 4340
scalar World.node[23].nic.mac1609_4 RXTXLostPackets 1241
scalar World.node[23].nic.mac1609_4 TotalLostPackets 5581
scalar World.node[23].nic.mac1609_4 DroppedPacketsInMac 0
scalar World.node[23].nic.mac1609_4 TooLittleTime 0
scalar World.node[23].nic.mac1609_4 TimesIntoBackoff 713
scalar World.node[23].nic.mac1609_4 SlotsBackoff 5229
scalar World.node[23].nic.mac1609_4 NumInternalContention 0
scalar World.node[23].nic.mac1609_4 totalBusyTime 3.851088985137
scalar World.node[52].appl.middleware.CaService #cam_sent 461
scalar World.node[52].appl.middleware.ExampleService #full_proofs 0
scalar World.node[52].appl.middleware.ExampleService #half_proofs 3
scalar World.node[52].appl.middleware.ExampleService #failed_proofs 0
scalar World.node[52].appl.middleware.ExampleService #loc_proof_send 66
scalar World.node[52].nic.phy80211p busyTime 0.017576783216782
scalar World.node[52].nic.mac1609_4 ReceivedUnicastPackets 0
scalar World.node[52].nic.mac1609_4 ReceivedBroadcasts 12696
scalar World.node[52].nic.mac1609_4 SentPackets 527
scalar World.node[52].nic.mac1609_4 SentAcknowledgements 0
scalar World.node[52].nic.mac1609_4 SNIRLostPackets 3262
scalar World.node[52].nic.mac1609_4 RXTXLostPackets 1016
scalar World.node[52].nic.mac1609_4 TotalLostPackets 4278
scalar World.node[52].nic.mac1609_4 DroppedPacketsInMac 0
scalar World.node[52].nic.mac1609_4 TooLittleTime 0
scalar World.node[52].nic.mac1609_4 TimesIntoBackoff 559
scalar World.node[52].nic.mac1609_4 SlotsBackoff 4216
scalar World.node[52].nic.mac1609_4 NumInternalContention 0
scalar World.node[52].nic.mac1609_4 totalBusyTime 2.481698329001
scalar World.node[37].appl.middleware.CaService #cam_sent 564
scalar World.node[37].appl.middleware.ExampleService #full_proofs 0
scalar World.node[37].appl.middleware.ExampleService #half_proofs 4
scalar World.node[37].appl.middleware.ExampleService #failed_proofs 0
scalar World.node[37].appl.middleware.ExampleService #loc_proof_send 84
scalar World.node[37].nic.phy80211p busyTime 0.016937830845772
scalar World.node[37].nic.mac1609_4 ReceivedUnicastPackets 0
scalar World.node[37].nic.mac1609_4 ReceivedBroadcasts 15472
scalar World.node[37].nic.mac1609_4 SentPackets 648
scalar World.node[37].nic.mac1609_4 SentAcknowledgements 0
scalar World.node[37].nic.mac1609_4 SNIRLostPackets 6183
scalar World.node[37].nic.mac1609_4 RXTXLostPackets 992
scalar World.node[37].nic.mac1609_4 TotalLostPackets 7175
scalar World.node[37].nic.mac1609_4 DroppedPacketsInMac 0
scalar World.node[37].nic.mac1609_4 TooLittleTime 0
scalar World.node[37].nic.mac1609_4 TimesIntoBackoff 669
scalar World.node[37].nic.mac1609_4 SlotsBackoff 5003
scalar World.node[37].nic.mac1609_4 NumInternalContention 0
scalar World.node[37].nic.mac1609_4 totalBusyTime 3.330785100347
scalar World.node[43].appl.middleware.CaService #cam_sent 490
scalar World.node[43].appl.middleware.ExampleService #full_proofs 0
scalar World.node[43].appl.middleware.ExampleService #half_proofs 2
scalar World.node[43].appl.middleware.ExampleService #failed_proofs 1
scalar World.node[43].appl.middleware.ExampleService #loc_proof_send 71
scalar World.node[43].nic.phy80211p busyTime 0.017229259668508
scalar World.node[43].nic.mac1609_4 ReceivedUnicastPackets 0
scalar World.node[43].nic.mac1609_4 ReceivedBroadcasts 13828
scalar World.node[43].nic.mac1609_4 SentPackets 561
scalar World.node[43].nic.mac1609_4 SentAcknowledgements 0
scalar World.node[43].nic.mac1609_4 SNIRLostPackets 5998
scalar World.node[43].nic.mac1609_4 RXTXLostPackets 1082
scalar World.node[43].nic.mac1609_4 TotalLostPackets 7080
scalar World.node[43].nic.mac1609_4 DroppedPacketsInMac 0
scalar World.node[43].nic.mac1609_4 TooLittleTime 0
scalar World.node[43].nic.mac1609_4 TimesIntoBackoff 631
scalar World.node[43].nic.mac1609_4 SlotsBackoff 4557
scalar World.node[43].nic.mac1609_4 NumInternalContention 0
scalar World.node[43].nic.mac1609_4 totalBusyTime 3.061923783946
scalar World.node[58].appl.middleware.CaService #cam_sent 354
scalar World.node[58].appl.middleware.ExampleService #full_proofs 0
scalar World.node[58].appl.middleware.ExampleService #half_proofs 2
scalar World.node[58].appl.middleware.ExampleService #failed_proofs 0
scalar World.node[58].appl.middleware.ExampleService #loc_proof_send 51
scalar World.node[58].nic.phy80211p busyTime 0.017838700854699
scalar World.node[58].nic.mac1609_4 ReceivedUnicastPackets 0
scalar World.node[58].nic.mac1609_4 ReceivedBroadcasts 9677
scalar World.node[58].nic.mac1609_4 SentPackets 405
scalar World.node[58].nic.mac1609_4 SentAcknowledgements 0
scalar World.node[58].nic.mac1609_4 SNIRLostPackets 3599
scalar World.node[58].nic.mac1609_4 RXTXLostPackets 700
scalar World.node[58].nic.mac1609_4 TotalLostPackets 4299
scalar World.node[58].nic.mac1609_4 DroppedPacketsInMac 0
scalar World.node[58].nic.mac1609_4 TooLittleTime 0
scalar World.node[58].nic.mac1609_4 TimesIntoBackoff 461
scalar World.node[58].nic.mac1609_4 SlotsBackoff 3525
scalar World.node[58].nic.mac1609_4 NumInternalContention 0
scalar World.node[58].nic.mac1609_4 totalBusyTime 2.031896400546
scalar World.node[17].appl.middleware.CaService #cam_sent 773
scalar World.node[17].appl.middleware.ExampleService #full_proofs 0
scalar World.node[17].appl.middleware.ExampleService #half_proofs 5
scalar World.node[17].appl.middleware.ExampleService #failed_proofs 0
scalar World.node[17].appl.middleware.ExampleService #loc_proof_send 131
scalar World.node[17].nic.phy80211p busyTime 0.014995378378382
scalar World.node[17].nic.mac1609_4 ReceivedUnicastPackets 0
scalar World.node[17].nic.mac1609_4 ReceivedBroadcasts 24778
scalar World.node[17].nic.mac1609_4 SentPackets 904
scalar World.node[17].nic.mac1609_4 SentAcknowledgements 0
scalar World.node[17].nic.mac1609_4 SNIRLostPackets 3409
scalar World.node[17].nic.mac1609_4 RXTXLostPackets 1443
scalar World.node[17].nic.mac1609_4 TotalLostPackets 4852
scalar World.node[17].nic.mac1609_4 DroppedPacketsInMac 0
scalar World.node[17].nic.mac1609_4 TooLittleTime 0
scalar World.node[17].nic.mac1609_4 TimesIntoBackoff 961
scalar World.node[17].nic.mac1609_4 SlotsBackoff 7365
scalar World.node[17].nic.mac1609_4 NumInternalContention 0
scalar World.node[17].nic.mac1609_4 totalBusyTime 4.385763552044
scalar World.node[59].appl.middleware.CaService #cam_sent 342
scalar World.node[59].appl.middleware.ExampleService #full_proofs 0
scalar World.node[59].appl.middleware.ExampleService #half_proofs 2
scalar World.node[59].appl.middleware.ExampleService #failed_proofs 0
scalar World.node[59].appl.middleware.ExampleService #loc_proof_send 60
scalar World.node[59].nic.phy80211p busyTime 0.018139756521737
scalar World.node[59].nic.mac1609_4 ReceivedUnicastPackets 0
scalar World.node[59].nic.mac1609_4 ReceivedBroadcasts 11483
scalar World.node[59].nic.mac1609_4 SentPackets 402
scalar World.node[59].nic.mac1609_4 SentAcknowledgements 0
scalar World.node[59].nic.mac1609_4 SNIRLostPackets 1882
scalar World.node[59].nic.mac1609_4 RXTXLostPackets 509
scalar World.node[59].nic.mac1609_4 TotalLostPackets 2391
scalar World.node[59].nic.mac1609_4 DroppedPacketsInMac 0
scalar World.node[59].nic.mac1609_4 TooLittleTime 0
scalar World.node[59].nic.mac1609_4 TimesIntoBackoff 517
scalar World.node[59].nic.mac1609_4 SlotsBackoff 3864
scalar World.node[59].nic.mac1609_4 NumInternalContention 0
scalar World.node[59].nic.mac1609_4 totalBusyTime 1.997724996231
scalar World.node[47].appl.middleware.CaService #cam_sent 462
scalar World.node[47].appl.middleware.ExampleService #full_proofs 0
scalar World.node[47].appl.middleware.ExampleService #half_proofs 2
scalar World.node[47].appl.middleware.ExampleService #failed_proofs 0
scalar World.node[47].appl.middleware.ExampleService #loc_proof_send 82
scalar World.node[47].nic.phy80211p busyTime 0.017725225433526
scalar World.node[47].nic.mac1609_4 ReceivedUnicastPackets 0
scalar World.node[47].nic.mac1609_4 ReceivedBroadcasts 15998
scalar World.node[47].nic.mac1609_4 SentPackets 544
scalar World.node[47].nic.mac1609_4 SentAcknowledgements 0
scalar World.node[47].nic.mac1609_4 SNIRLostPackets 3538
scalar World.node[47].nic.mac1609_4 RXTXLostPackets 928
scalar World.node[47].nic.mac1609_4 TotalLostPackets 4466
scalar World.node[47].nic.mac1609_4 DroppedPacketsInMac 0
scalar World.node[47].nic.mac1609_4 TooLittleTime 0
scalar World.node[47].nic.mac1609_4 TimesIntoBackoff 557
scalar World.node[47].nic.mac1609_4 SlotsBackoff 4343
scalar World.node[47].nic.mac1609_4 NumInternalContention 0
scalar World.node[47].nic.mac1609_4 totalBusyTime 2.973266436333
scalar World.node[49].appl.middleware.CaService #cam_sent 506
scalar World.node[49].appl.middleware.ExampleService #full_proofs 0
scalar World.node[49].appl.middleware.ExampleService #half_proofs 3
scalar World.node[49].appl.middleware.ExampleService #failed_proofs 0
scalar World.node[49].appl.middleware.ExampleService #loc_proof_send 89
scalar World.node[49].nic.phy80211p busyTime 0.017769088757396
scalar World.node[49].nic.mac1609_4 ReceivedUnicastPackets 0
scalar World.node[49].nic.mac1609_4 ReceivedBroadcasts 16259
scalar World.node[49].nic.mac1609_4 SentPackets 595
scalar World.node[49].nic.mac1609_4 SentAcknowledgements 0
scalar World.node[49].nic.mac1609_4 SNIRLostPackets 2911
scalar World.node[49].nic.mac1609_4 RXTXLostPackets 980
scalar World.node[49].nic.mac1609_4 TotalLostPackets 3891
scalar World.node[49].nic.mac1609_4 DroppedPacketsInMac 0
scalar World.node[49].nic.mac1609_4 TooLittleTime 0
scalar World.node[49].nic.mac1609_4 TimesIntoBackoff 633
scalar World.node[49].nic.mac1609_4 SlotsBackoff 4909
scalar World.node[49].nic.mac1609_4 NumInternalContention 0
scalar World.node[49].nic.mac1609_4 totalBusyTime 2.924862575829
scalar World.node[55].appl.middleware.CaService #cam_sent 408
scalar World.node[55].appl.middleware.ExampleService #full_proofs 0
scalar World.node[55].appl.middleware.ExampleService #half_proofs 2
scalar World.node[55].appl.middleware.ExampleService #failed_proofs 0
scalar World.node[55].appl.middleware.ExampleService #loc_proof_send 82
scalar World.node[55].nic.phy80211p busyTime 0.018335999999999
scalar World.node[55].nic.mac1609_4 ReceivedUnicastPackets 0
scalar World.node[55].nic.mac1609_4 ReceivedBroadcasts 15293
scalar World.node[55].nic.mac1609_4 SentPackets 490
scalar World.node[55].nic.mac1609_4 SentAcknowledgements 0
scalar World.node[55].nic.mac1609_4 SNIRLostPackets 2303
scalar World.node[55].nic.mac1609_4 RXTXLostPackets 727
scalar World.node[55].nic.mac1609_4 TotalLostPackets 3030
scalar World.node[55].nic.mac1609_4 DroppedPacketsInMac 0
scalar World.node[55].nic.mac1609_4 TooLittleTime 0
scalar World.node[55].nic.mac1609_4 TimesIntoBackoff 498
scalar World.node[55].nic.mac1609_4 SlotsBackoff 3836
scalar World.node[55].nic.mac1609_4 NumInternalContention 0
scalar World.node[55].nic.mac1609_4 totalBusyTime 2.641396421383
scalar World.node[41].appl.middleware.CaService #cam_sent 591
scalar World.node[41].appl.middleware.ExampleService #full_proofs 0
scalar World.node[41].appl.middleware.ExampleService #half_proofs 4
scalar World.node[41].appl.middleware.ExampleService #failed_proofs 0
scalar World.node[41].appl.middleware.ExampleService #loc_proof_send 94
scalar World.node[41].nic.phy80211p busyTime 0.01738351173709
scalar World.node[41].nic.mac1609_4 ReceivedUnicastPackets 0
scalar World.node[41].nic.mac1609_4 ReceivedBroadcasts 17539
scalar World.node[41].nic.mac1609_4 SentPackets 685
scalar World.node[41].nic.mac1609_4 SentAcknowledgements 0
scalar World.node[41].nic.mac1609_4 SNIRLostPackets 6023
scalar World.node[41].nic.mac1609_4 RXTXLostPackets 1348
scalar World.node[41].nic.mac1609_4 TotalLostPackets 7371
scalar World.node[41].nic.mac1609_4 DroppedPacketsInMac 0
scalar World.node[41].nic.mac1609_4 TooLittleTime 0
scalar World.node[41].nic.mac1609_4 TimesIntoBackoff 982
scalar World.node[41].nic.mac1609_4 SlotsBackoff 7246
scalar World.node[41].nic.mac1609_4 NumInternalContention 0
scalar World.node[41].nic.mac1609_4 totalBusyTime 3.637256371601
scalar World.node[34].appl.middleware.CaService #cam_sent 685
scalar World.node[34].appl.middleware.ExampleService #full_proofs 0
scalar World.node[34].appl.middleware.ExampleService #half_proofs 3
scalar World.node[34].appl.middleware.ExampleService #failed_proofs 1
scalar World.node[34].appl.middleware.ExampleService #loc_proof_send 125
scalar World.node[34].nic.phy80211p busyTime 0.0172295483871
scalar World.node[34].nic.mac1609_4 ReceivedUnicastPackets 0
scalar World.node[34].nic.mac1609_4 ReceivedBroadcasts 22154
scalar World.node[34].nic.mac1609_4 SentPackets 810
scalar World.node[34].nic.mac1609_4 SentAcknowledgements 0
scalar World.node[34].nic.mac1609_4 SNIRLostPackets 5067
scalar World.node[34].nic.mac1609_4 RXTXLostPackets 1390
scalar World.node[34].nic.mac1609_4 TotalLostPackets 6457
scalar World.node[34].nic.mac1609_4 DroppedPacketsInMac 0
scalar World.node[34].nic.mac1609_4 TooLittleTime 0
scalar World.node[34].nic.mac1609_4 TimesIntoBackoff 833
scalar World.node[34].nic.mac1609_4 SlotsBackoff 6230
scalar World.node[34].nic.mac1609_4 NumInternalContention 0
scalar World.node[34].nic.mac1609_4 totalBusyTime 4.167333730392
scalar World.node[60].appl.middleware.CaService #cam_sent 337
scalar World.node[60].appl.middleware.ExampleService #full_proofs 0
scalar World.node[60].appl.middleware.ExampleService #half_proofs 1
scalar World.node[60].appl.middleware.ExampleService #failed_proofs 1
scalar World.node[60].appl.middleware.ExampleService #loc_proof_send 72
scalar World.node[60].nic.phy80211p busyTime 0.018517449275361
scalar World.node[60].nic.mac1609_4 ReceivedUnicastPackets 0
scalar World.node[60].nic.mac1609_4 ReceivedBroadcasts 13610
scalar World.node[60].nic.mac1609_4 SentPackets 409
scalar World.node[60].nic.mac1609_4 SentAcknowledgements 0
scalar World.node[60].nic.mac1609_4 SNIRLostPackets 2672
scalar World.node[60].nic.mac1609_4 RXTXLostPackets 1038
scalar World.node[60].nic.mac1609_4 TotalLostPackets 3710
scalar World.node[60].nic.mac1609_4 DroppedPacketsInMac 0
scalar World.node[60].nic.mac1609_4 TooLittleTime 0
scalar World.node[60].nic.mac1609_4 TimesIntoBackoff 663
scalar World.node[60].nic.mac1609_4 SlotsBackoff 4976
scalar World.node[60].nic.mac1609_4 NumInternalContention 0
scalar World.node[60].nic.mac1609_4 totalBusyTime 2.480538965215
scalar World.node[42].appl.middleware.CaService #cam_sent 413
scalar World.node[42].appl.middleware.ExampleService #full_proofs 0
scalar World.node[42].appl.middleware.ExampleService #half_proofs 4
scalar World.node[42].appl.middleware.ExampleService #failed_proofs 0
scalar World.node[42].appl.middleware.ExampleService #loc_proof_send 94
scalar World.node[42].nic.phy80211p busyTime 0.017859596330277
scalar World.node[42].nic.mac1609_4 ReceivedUnicastPackets 0
scalar World.node[42].nic.mac1609_4 ReceivedBroadcasts 18740
scalar World.node[42].nic.mac1609_4 SentPackets 507
scalar World.node[42].nic.mac1609_4 SentAcknowledgements 0
scalar World.node[42].nic.mac1609_4 SNIRLostPackets 5991
scalar World.node[42].nic.mac1609_4 RXTXLostPackets 1255
scalar World.node[42].nic.mac1609_4 TotalLostPackets 7246
scalar World.node[42].nic.mac1609_4 DroppedPacketsInMac 0
scalar World.node[42].nic.mac1609_4 TooLittleTime 0
scalar World.node[42].nic.mac1609_4 TimesIntoBackoff 510
scalar World.node[42].nic.mac1609_4 SlotsBackoff 3645
scalar World.node[42].nic.mac1609_4 NumInternalContention 0
scalar World.node[42].nic.mac1609_4 totalBusyTime 3.764990278023
scalar World.node[72].appl.middleware.CaService #cam_sent 284
scalar World.node[72].appl.middleware.ExampleService #full_proofs 0
scalar World.node[72].appl.middleware.ExampleService #half_proofs 2
scalar World.node[72].appl.middleware.ExampleService #failed_proofs 0
scalar World.node[72].appl.middleware.ExampleService #loc_proof_send 44
scalar World.node[72].nic.phy80211p busyTime 0.019629461538459
scalar World.node[72].nic.mac1609_4 ReceivedUnicastPackets 0
scalar World.node[72].nic.mac1609_4 ReceivedBroadcasts 9559
scalar World.node[72].nic.mac1609_4 SentPackets 328
scalar World.node[72].nic.mac1609_4 SentAcknowledgements 0
scalar World.node[72].nic.mac1609_4 SNIRLostPackets 3469
scalar World.node[72].nic.mac1609_4 RXTXLostPackets 640
scalar World.node[72].nic.mac1609_4 TotalLostPackets 4109
scalar World.node[72].nic.mac1609_4 DroppedPacketsInMac 0
scalar World.node[72].nic.mac1609_4 TooLittleTime 0
scalar World.node[72].nic.mac1609_4 TimesIntoBackoff 337
scalar World.node[72].nic.mac1609_4 SlotsBackoff 2601
scalar World.node[72].nic.mac1609_4 NumInternalContention 0
scalar World.node[72].nic.mac1609_4 totalBusyTime 1.961641368318
scalar World.node[29].appl.middleware.CaService #cam_sent 752
scalar World.node[29].appl.middleware.ExampleService #full_proofs 0
scalar World.node[29].appl.middleware.ExampleService #half_proofs 5
scalar World.node[29].appl.middleware.ExampleService #failed_proofs 0
scalar World.node[29].appl.middleware.ExampleService #loc_proof_send 141
scalar World.node[29].nic.phy80211p busyTime 0.017085247311833
scalar World.node[29].nic.mac1609_4 ReceivedUnicastPackets 0
scalar World.node[29].nic.mac1609_4 ReceivedBroadcasts 26444
scalar World.node[29].nic.mac1609_4 SentPackets 893
scalar World.node[29].nic.mac1609_4 SentAcknowledgements 0
scalar World.node[29].nic.mac1609_4 SNIRLostPackets 3823
scalar World.node[29].nic.mac1609_4 RXTXLostPackets 1836
scalar World.node[29].nic.mac1609_4 TotalLostPackets 5659
scalar World.node[29].nic.mac1609_4 DroppedPacketsInMac 0
scalar World.node[29].nic.mac1609_4 TooLittleTime 0
scalar World.node[29].nic.mac1609_4 TimesIntoBackoff 926
scalar World.node[29].nic.mac1609_4 SlotsBackoff 6915
scalar World.node[29].nic.mac1609_4 NumInternalContention 0
scalar World.node[29].nic.mac1609_4 totalBusyTime 4.694034105609
scalar World.node[46].appl.middleware.CaService #cam_sent 548
scalar World.node[46].appl.middleware.ExampleService #full_proofs 0
scalar World.node[46].appl.middleware.ExampleService #half_proofs 3
scalar World.node[46].appl.middleware.ExampleService #failed_proofs 1
scalar World.node[46].appl.middleware.ExampleService #loc_proof_send 109
scalar World.node[46].nic.phy80211p busyTime 0.018448000000002
scalar World.node[46].nic.mac1609_4 ReceivedUnicastPackets 0
scalar World.node[46].nic.mac1609_4 ReceivedBroadcasts 21669
scalar World.node[46].nic.mac1609_4 SentPackets 657
scalar World.node[46].nic.mac1609_4 SentAcknowledgements 0
scalar World.node[46].nic.mac1609_4 SNIRLostPackets 4511
scalar World.node[46].nic.mac1609_4 RXTXLostPackets 1294
scalar World.node[46].nic.mac1609_4 TotalLostPackets 5805
scalar World.node[46].nic.mac1609_4 DroppedPacketsInMac 0
scalar World.node[46].nic.mac1609_4 TooLittleTime 0
scalar World.node[46].nic.mac1609_4 TimesIntoBackoff 666
scalar World.node[46].nic.mac1609_4 SlotsBackoff 4918
scalar World.node[46].nic.mac1609_4 NumInternalContention 0
scalar World.node[46].nic.mac1609_4 totalBusyTime 3.987182527269
scalar World.node[51].appl.middleware.CaService #cam_sent 552
scalar World.node[51].appl.middleware.ExampleService #full_proofs 0
scalar World.node[51].appl.middleware.ExampleService #half_proofs 4
scalar World.node[51].appl.middleware.ExampleService #failed_proofs 0
scalar World.node[51].appl.middleware.ExampleService #loc_proof_send 106
scalar World.node[51].nic.phy80211p busyTime 0.018609359223302
scalar World.node[51].nic.mac1609_4 ReceivedUnicastPackets 0
scalar World.node[51].nic.mac1609_4 ReceivedBroadcasts 20189
scalar World.node[51].nic.mac1609_4 SentPackets 658
scalar World.node[51].nic.mac1609_4 SentAcknowledgements 0
scalar World.node[51].nic.mac1609_4 SNIRLostPackets 4241
scalar World.node[51].nic.mac1609_4 RXTXLostPackets 1365
scalar World.node[51].nic.mac1609_4 TotalLostPackets 5606
scalar World.node[51].nic.mac1609_4 DroppedPacketsInMac 0
scalar World.node[51].nic.mac1609_4 TooLittleTime 0
scalar World.node[51].nic.mac1609_4 TimesIntoBackoff 676
scalar World.node[51].nic.mac1609_4 SlotsBackoff 5085
scalar World.node[51].nic.mac1609_4 NumInternalContention 0
scalar World.node[51].nic.mac1609_4 totalBusyTime 3.721623341422
scalar World.node[81].appl.middleware.CaService #cam_sent 229
scalar World.node[81].appl.middleware.ExampleService #full_proofs 0
scalar World.node[81].appl.middleware.ExampleService #half_proofs 1
scalar World.node[81].appl.middleware.ExampleService #failed_proofs 0
scalar World.node[81].appl.middleware.ExampleService #loc_proof_send 48
scalar World.node[81].nic.phy80211p busyTime 0.020249078651683
scalar World.node[81].nic.mac1609_4 ReceivedUnicastPackets 0
scalar World.node[81].nic.mac1609_4 ReceivedBroadcasts 9628
scalar World.node[81].nic.mac1609_4 SentPackets 277
scalar World.node[81].nic.mac1609_4 SentAcknowledgements 0
scalar World.node[81].nic.mac1609_4 SNIRLostPackets 1831
scalar World.node[81].nic.mac1609_4 RXTXLostPackets 815
scalar World.node[81].nic.mac1609_4 TotalLostPackets 2646
scalar World.node[81].nic.mac1609_4 DroppedPacketsInMac 0
scalar World.node[81].nic.mac1609_4 TooLittleTime 0
scalar World.node[81].nic.mac1609_4 TimesIntoBackoff 282
scalar World.node[81].nic.mac1609_4 SlotsBackoff 2229
scalar World.node[81].nic.mac1609_4 NumInternalContention 0
scalar World.node[81].nic.mac1609_4 totalBusyTime 1.739007232168
scalar World.node[78].appl.middleware.CaService #cam_sent 307
scalar World.node[78].appl.middleware.ExampleService #full_proofs 0
scalar World.node[78].appl.middleware.ExampleService #half_proofs 1
scalar World.node[78].appl.middleware.ExampleService #failed_proofs 0
scalar World.node[78].appl.middleware.ExampleService #loc_proof_send 60
scalar World.node[78].nic.phy80211p busyTime 0.02008667889908
scalar World.node[78].nic.mac1609_4 ReceivedUnicastPackets 0
scalar World.node[78].nic.mac1609_4 ReceivedBroadcasts 11183
scalar World.node[78].nic.mac1609_4 SentPackets 367
scalar World.node[78].nic.mac1609_4 SentAcknowledgements 0
scalar World.node[78].nic.mac1609_4 SNIRLostPackets 2762
scalar World.node[78].nic.mac1609_4 RXTXLostPackets 859
scalar World.node[78].nic.mac1609_4 TotalLostPackets 3621
scalar World.node[78].nic.mac1609_4 DroppedPacketsInMac 0
scalar World.node[78].nic.mac1609_4 TooLittleTime 0
scalar World.node[78].nic.mac1609_4 TimesIntoBackoff 369
scalar World.node[78].nic.mac1609_4 SlotsBackoff 2626
scalar World.node[78].nic.mac1609_4 NumInternalContention 0
scalar World.node[78].nic.mac1609_4 totalBusyTime 2.108842148393
scalar World.node[44].appl.middleware.CaService #cam_sent 630
scalar World.node[44].appl.middleware.ExampleService #full_proofs 0
scalar World.node[44].appl.middleware.ExampleService #half_proofs 4
scalar World.node[44].appl.middleware.ExampleService #failed_proofs 0
scalar World.node[44].appl.middleware.ExampleService #loc_proof_send 139
scalar World.node[44].nic.phy80211p busyTime 0.018469011673158
scalar World.node[44].nic.mac1609_4 ReceivedUnicastPackets 0
scalar World.node[44].nic.mac1609_4 ReceivedBroadcasts 26611
scalar World.node[44].nic.mac1609_4 SentPackets 769
scalar World.node[44].nic.mac1609_4 SentAcknowledgements 0
scalar World.node[44].nic.mac1609_4 SNIRLostPackets 3504
scalar World.node[44].nic.mac1609_4 RXTXLostPackets 2204
scalar World.node[44].nic.mac1609_4 TotalLostPackets 5708
scalar World.node[44].nic.mac1609_4 DroppedPacketsInMac 0
scalar World.node[44].nic.mac1609_4 TooLittleTime 0
scalar World.node[44].nic.mac1609_4 TimesIntoBackoff 799
scalar World.node[44].nic.mac1609_4 SlotsBackoff 6106
scalar World.node[44].nic.mac1609_4 NumInternalContention 0
scalar World.node[44].nic.mac1609_4 totalBusyTime 4.650889233328
scalar World.node[65].appl.middleware.CaService #cam_sent 466
scalar World.node[65].appl.middleware.ExampleService #full_proofs 0
scalar World.node[65].appl.middleware.ExampleService #half_proofs 3
scalar World.node[65].appl.middleware.ExampleService #failed_proofs 0
scalar World.node[65].appl.middleware.ExampleService #loc_proof_send 88
scalar World.node[65].nic.phy80211p busyTime 0.019502500000001
scalar World.node[65].nic.mac1609_4 ReceivedUnicastPackets 0
scalar World.node[65].nic.mac1609_4 ReceivedBroadcasts 16589
scalar World.node[65].nic.mac1609_4 SentPackets 554
scalar World.node[65].nic.mac1609_4 SentAcknowledgements 0
scalar World.node[65].nic.mac1609_4 SNIRLostPackets 5340
scalar World.node[65].nic.mac1609_4 RXTXLostPackets 1331
scalar World.node[65].nic.mac1609_4 TotalLostPackets 6671
scalar World.node[65].nic.mac1609_4 DroppedPacketsInMac 0
scalar World.node[65].nic.mac1609_4 TooLittleTime 0
scalar World.node[65].nic.mac1609_4 TimesIntoBackoff 570
scalar World.node[65].nic.mac1609_4 SlotsBackoff 4081
scalar World.node[65].nic.mac1609_4 NumInternalContention 0
scalar World.node[65].nic.mac1609_4 totalBusyTime 3.311628224206
scalar World.node[66].appl.middleware.CaService #cam_sent 516
scalar World.node[66].appl.middleware.ExampleService #full_proofs 0
scalar World.node[66].appl.middleware.ExampleService #half_proofs 3
scalar World.node[66].appl.middleware.ExampleService #failed_proofs 0
scalar World.node[66].appl.middleware.ExampleService #loc_proof_send 99
scalar World.node[66].nic.phy80211p busyTime 0.019415695652175
scalar World.node[66].nic.mac1609_4 ReceivedUnicastPackets 0
scalar World.node[66].nic.mac1609_4 ReceivedBroadcasts 18827
scalar World.node[66].nic.mac1609_4 SentPackets 615
scalar World.node[66].nic.mac1609_4 SentAcknowledgements 0
scalar World.node[66].nic.mac1609_4 SNIRLostPackets 3928
scalar World.node[66].nic.mac1609_4 RXTXLostPackets 1712
scalar World.node[66].nic.mac1609_4 TotalLostPackets 5640
scalar World.node[66].nic.mac1609_4 DroppedPacketsInMac 0
scalar World.node[66].nic.mac1609_4 TooLittleTime 0
scalar World.node[66].nic.mac1609_4 TimesIntoBackoff 634
scalar World.node[66].nic.mac1609_4 SlotsBackoff 4765
scalar World.node[66].nic.mac1609_4 NumInternalContention 0
scalar World.node[66].nic.mac1609_4 totalBusyTime 3.474852026595
scalar World.node[61].appl.middleware.CaService #cam_sent 509
scalar World.node[61].appl.middleware.ExampleService #full_proofs 0
scalar World.node[61].appl.middleware.ExampleService #half_proofs 4
scalar World.node[61].appl.middleware.ExampleService #failed_proofs 0
scalar World.node[61].appl.middleware.ExampleService #loc_proof_send 114
scalar World.node[61].nic.phy80211p busyTime 0.019450049261085
scalar World.node[61].nic.mac1609_4 ReceivedUnicastPackets 0
scalar World.node[61].nic.mac1609_4 ReceivedBroadcasts 22202
scalar World.node[61].nic.mac1609_4 SentPackets 623
scalar World.node[61].nic.mac1609_4 SentAcknowledgements 0
scalar World.node[61].nic.mac1609_4 SNIRLostPackets 3052
scalar World.node[61].nic.mac1609_4 RXTXLostPackets 1571
scalar World.node[61].nic.mac1609_4 TotalLostPackets 4623
scalar World.node[61].nic.mac1609_4 DroppedPacketsInMac 0
scalar World.node[61].nic.mac1609_4 TooLittleTime 0
scalar World.node[61].nic.mac1609_4 TimesIntoBackoff 800
scalar World.node[61].nic.mac1609_4 SlotsBackoff 5936
scalar World.node[61].nic.mac1609_4 NumInternalContention 0
scalar World.node[61].nic.mac1609_4 totalBusyTime 3.790582735224
scalar World.node[74].appl.middleware.CaService #cam_sent 351
scalar World.node[74].appl.middleware.ExampleService #full_proofs 0
scalar World.node[74].appl.middleware.ExampleService #half_proofs 2
scalar World.node[74].appl.middleware.ExampleService #failed_proofs 1
scalar World.node[74].appl.middleware.ExampleService #loc_proof_send 91
scalar World.node[74].nic.phy80211p busyTime 0.020104859060402
scalar World.node[74].nic.mac1609_4 ReceivedUnicastPackets 0
scalar World.node[74].nic.mac1609_4 ReceivedBroadcasts 16655
scalar World.node[74].nic.mac1609_4 SentPackets 442
scalar World.node[74].nic.mac1609_4 SentAcknowledgements 0
[...]
scalar World.node[886].appl.middleware.CaService #cam_sent 639
scalar World.node[886].appl.middleware.ExampleService #full_proofs 0
scalar World.node[886].appl.middleware.ExampleService #half_proofs 6
scalar World.node[886].appl.middleware.ExampleService #failed_proofs 1
scalar World.node[886].appl.middleware.ExampleService #loc_proof_send 183
scalar World.node[886].nic.phy80211p busyTime 0.019180871391092
scalar World.node[886].nic.mac1609_4 ReceivedUnicastPackets 0
scalar World.node[886].nic.mac1609_4 ReceivedBroadcasts 36919
scalar World.node[886].nic.mac1609_4 SentPackets 822
scalar World.node[886].nic.mac1609_4 SentAcknowledgements 0
scalar World.node[886].nic.mac1609_4 SNIRLostPackets 10046
scalar World.node[886].nic.mac1609_4 RXTXLostPackets 3889
scalar World.node[886].nic.mac1609_4 TotalLostPackets 13935
scalar World.node[886].nic.mac1609_4 DroppedPacketsInMac 0
scalar World.node[886].nic.mac1609_4 TooLittleTime 0
scalar World.node[886].nic.mac1609_4 TimesIntoBackoff 857
scalar World.node[886].nic.mac1609_4 SlotsBackoff 6438
scalar World.node[886].nic.mac1609_4 NumInternalContention 0
scalar World.node[886].nic.mac1609_4 totalBusyTime 6.889802807853
scalar World.node[921].appl.middleware.CaService #cam_sent 648
scalar World.node[921].appl.middleware.ExampleService #full_proofs 0
scalar World.node[921].appl.middleware.ExampleService #half_proofs 4
scalar World.node[921].appl.middleware.ExampleService #failed_proofs 0
scalar World.node[921].appl.middleware.ExampleService #loc_proof_send 89
scalar World.node[921].nic.phy80211p busyTime 0.015226775510205
scalar World.node[921].nic.mac1609_4 ReceivedUnicastPackets 0
scalar World.node[921].nic.mac1609_4 ReceivedBroadcasts 13571
scalar World.node[921].nic.mac1609_4 SentPackets 737
scalar World.node[921].nic.mac1609_4 SentAcknowledgements 0
scalar World.node[921].nic.mac1609_4 SNIRLostPackets 10362
scalar World.node[921].nic.mac1609_4 RXTXLostPackets 1217
scalar World.node[921].nic.mac1609_4 TotalLostPackets 11579
scalar World.node[921].nic.mac1609_4 DroppedPacketsInMac 0
scalar World.node[921].nic.mac1609_4 TooLittleTime 0
scalar World.node[921].nic.mac1609_4 TimesIntoBackoff 748
scalar World.node[921].nic.mac1609_4 SlotsBackoff 5703
scalar World.node[921].nic.mac1609_4 NumInternalContention 0
scalar World.node[921].nic.mac1609_4 totalBusyTime 3.54158610111
scalar World.node[916].appl.middleware.CaService #cam_sent 640
scalar World.node[916].appl.middleware.ExampleService #full_proofs 0
scalar World.node[916].appl.middleware.ExampleService #half_proofs 4
scalar World.node[916].appl.middleware.ExampleService #failed_proofs 0
scalar World.node[916].appl.middleware.ExampleService #loc_proof_send 120
scalar World.node[916].nic.phy80211p busyTime 0.015518602230485
scalar World.node[916].nic.mac1609_4 ReceivedUnicastPackets 0
scalar World.node[916].nic.mac1609_4 ReceivedBroadcasts 19683
scalar World.node[916].nic.mac1609_4 SentPackets 760
scalar World.node[916].nic.mac1609_4 SentAcknowledgements 0
scalar World.node[916].nic.mac1609_4 SNIRLostPackets 6993
scalar World.node[916].nic.mac1609_4 RXTXLostPackets 1877
scalar World.node[916].nic.mac1609_4 TotalLostPackets 8870
scalar World.node[916].nic.mac1609_4 DroppedPacketsInMac 0
scalar World.node[916].nic.mac1609_4 TooLittleTime 0
scalar World.node[916].nic.mac1609_4 TimesIntoBackoff 781
scalar World.node[916].nic.mac1609_4 SlotsBackoff 5963
scalar World.node[916].nic.mac1609_4 NumInternalContention 0
scalar World.node[916].nic.mac1609_4 totalBusyTime 3.987259470015
scalar World.node[940].appl.middleware.CaService #cam_sent 546
scalar World.node[940].appl.middleware.ExampleService #full_proofs 0
scalar World.node[940].appl.middleware.ExampleService #half_proofs 3
scalar World.node[940].appl.middleware.ExampleService #failed_proofs 0
scalar World.node[940].appl.middleware.ExampleService #loc_proof_send 77
scalar World.node[940].nic.phy80211p busyTime 0.011721872340424
scalar World.node[940].nic.mac1609_4 ReceivedUnicastPackets 0
scalar World.node[940].nic.mac1609_4 ReceivedBroadcasts 11863
scalar World.node[940].nic.mac1609_4 SentPackets 623
scalar World.node[940].nic.mac1609_4 SentAcknowledgements 0
scalar World.node[940].nic.mac1609_4 SNIRLostPackets 2112
scalar World.node[940].nic.mac1609_4 RXTXLostPackets 981
scalar World.node[940].nic.mac1609_4 TotalLostPackets 3093
scalar World.node[940].nic.mac1609_4 DroppedPacketsInMac 0
scalar World.node[940].nic.mac1609_4 TooLittleTime 0
scalar World.node[940].nic.mac1609_4 TimesIntoBackoff 638
scalar World.node[940].nic.mac1609_4 SlotsBackoff 4758
scalar World.node[940].nic.mac1609_4 NumInternalContention 0
scalar World.node[940].nic.mac1609_4 totalBusyTime 2.178288163936
scalar World.node[939].appl.middleware.CaService #cam_sent 483
scalar World.node[939].appl.middleware.ExampleService #full_proofs 0
scalar World.node[939].appl.middleware.ExampleService #half_proofs 3
scalar World.node[939].appl.middleware.ExampleService #failed_proofs 0
scalar World.node[939].appl.middleware.ExampleService #loc_proof_send 59
scalar World.node[939].nic.phy80211p busyTime 0.011976994818652
scalar World.node[939].nic.mac1609_4 ReceivedUnicastPackets 0
scalar World.node[939].nic.mac1609_4 ReceivedBroadcasts 10148
scalar World.node[939].nic.mac1609_4 SentPackets 542
scalar World.node[939].nic.mac1609_4 SentAcknowledgements 0
scalar World.node[939].nic.mac1609_4 SNIRLostPackets 4554
scalar World.node[939].nic.mac1609_4 RXTXLostPackets 743
scalar World.node[939].nic.mac1609_4 TotalLostPackets 5297
scalar World.node[939].nic.mac1609_4 DroppedPacketsInMac 0
scalar World.node[939].nic.mac1609_4 TooLittleTime 0
scalar World.node[939].nic.mac1609_4 TimesIntoBackoff 553
scalar World.node[939].nic.mac1609_4 SlotsBackoff 4164
scalar World.node[939].nic.mac1609_4 NumInternalContention 0
scalar World.node[939].nic.mac1609_4 totalBusyTime 2.238910983067
scalar World.node[888].appl.middleware.CaService #cam_sent 955
scalar World.node[888].appl.middleware.ExampleService #full_proofs 0
scalar World.node[888].appl.middleware.ExampleService #half_proofs 6
scalar World.node[888].appl.middleware.ExampleService #failed_proofs 0
scalar World.node[888].appl.middleware.ExampleService #loc_proof_send 227
scalar World.node[888].nic.phy80211p busyTime 0.017930420000015
scalar World.node[888].nic.mac1609_4 ReceivedUnicastPackets 0
scalar World.node[888].nic.mac1609_4 ReceivedBroadcasts 36843
scalar World.node[888].nic.mac1609_4 SentPackets 1182
scalar World.node[888].nic.mac1609_4 SentAcknowledgements 0
scalar World.node[888].nic.mac1609_4 SNIRLostPackets 8975
scalar World.node[888].nic.mac1609_4 RXTXLostPackets 4236
scalar World.node[888].nic.mac1609_4 TotalLostPackets 13211
scalar World.node[888].nic.mac1609_4 DroppedPacketsInMac 0
scalar World.node[888].nic.mac1609_4 TooLittleTime 0
scalar World.node[888].nic.mac1609_4 TimesIntoBackoff 1236
scalar World.node[888].nic.mac1609_4 SlotsBackoff 9164
scalar World.node[888].nic.mac1609_4 NumInternalContention 0
scalar World.node[888].nic.mac1609_4 totalBusyTime 6.858892787854
scalar World.node[896].appl.middleware.CaService #cam_sent 691
scalar World.node[896].appl.middleware.ExampleService #full_proofs 0
scalar World.node[896].appl.middleware.ExampleService #half_proofs 6
scalar World.node[896].appl.middleware.ExampleService #failed_proofs 1
scalar World.node[896].appl.middleware.ExampleService #loc_proof_send 201
scalar World.node[896].nic.phy80211p busyTime 0.017005686486498
scalar World.node[896].nic.mac1609_4 ReceivedUnicastPackets 0
scalar World.node[896].nic.mac1609_4 ReceivedBroadcasts 34057
scalar World.node[896].nic.mac1609_4 SentPackets 892
scalar World.node[896].nic.mac1609_4 SentAcknowledgements 0
scalar World.node[896].nic.mac1609_4 SNIRLostPackets 6010
scalar World.node[896].nic.mac1609_4 RXTXLostPackets 3659
scalar World.node[896].nic.mac1609_4 TotalLostPackets 9669
scalar World.node[896].nic.mac1609_4 DroppedPacketsInMac 0
scalar World.node[896].nic.mac1609_4 TooLittleTime 0
scalar World.node[896].nic.mac1609_4 TimesIntoBackoff 943
scalar World.node[896].nic.mac1609_4 SlotsBackoff 7056
scalar World.node[896].nic.mac1609_4 NumInternalContention 0
scalar World.node[896].nic.mac1609_4 totalBusyTime 6.018496385141
scalar World.node[911].appl.middleware.CaService #cam_sent 707
scalar World.node[911].appl.middleware.ExampleService #full_proofs 0
scalar World.node[911].appl.middleware.ExampleService #half_proofs 5
scalar World.node[911].appl.middleware.ExampleService #failed_proofs 0
scalar World.node[911].appl.middleware.ExampleService #loc_proof_send 165
scalar World.node[911].nic.phy80211p busyTime 0.015204000000006
scalar World.node[911].nic.mac1609_4 ReceivedUnicastPackets 0
scalar World.node[911].nic.mac1609_4 ReceivedBroadcasts 26371
scalar World.node[911].nic.mac1609_4 SentPackets 872
scalar World.node[911].nic.mac1609_4 SentAcknowledgements 0
scalar World.node[911].nic.mac1609_4 SNIRLostPackets 5461
scalar World.node[911].nic.mac1609_4 RXTXLostPackets 2231
scalar World.node[911].nic.mac1609_4 TotalLostPackets 7692
scalar World.node[911].nic.mac1609_4 DroppedPacketsInMac 0
scalar World.node[911].nic.mac1609_4 TooLittleTime 0
scalar World.node[911].nic.mac1609_4 TimesIntoBackoff 901
scalar World.node[911].nic.mac1609_4 SlotsBackoff 6816
scalar World.node[911].nic.mac1609_4 NumInternalContention 0
scalar World.node[911].nic.mac1609_4 totalBusyTime 4.762217810258
scalar World.node[937].appl.middleware.CaService #cam_sent 525
scalar World.node[937].appl.middleware.ExampleService #full_proofs 0
scalar World.node[937].appl.middleware.ExampleService #half_proofs 2
scalar World.node[937].appl.middleware.ExampleService #failed_proofs 1
scalar World.node[937].appl.middleware.ExampleService #loc_proof_send 95
scalar World.node[937].nic.phy80211p busyTime 0.01115727510917
scalar World.node[937].nic.mac1609_4 ReceivedUnicastPackets 0
scalar World.node[937].nic.mac1609_4 ReceivedBroadcasts 14331
scalar World.node[937].nic.mac1609_4 SentPackets 620
scalar World.node[937].nic.mac1609_4 SentAcknowledgements 0
scalar World.node[937].nic.mac1609_4 SNIRLostPackets 1778
scalar World.node[937].nic.mac1609_4 RXTXLostPackets 1373
scalar World.node[937].nic.mac1609_4 TotalLostPackets 3151
scalar World.node[937].nic.mac1609_4 DroppedPacketsInMac 0
scalar World.node[937].nic.mac1609_4 TooLittleTime 0
scalar World.node[937].nic.mac1609_4 TimesIntoBackoff 630
scalar World.node[937].nic.mac1609_4 SlotsBackoff 4812
scalar World.node[937].nic.mac1609_4 NumInternalContention 0
scalar World.node[937].nic.mac1609_4 totalBusyTime 2.524878104813
scalar World.node[898].appl.middleware.CaService #cam_sent 962
scalar World.node[898].appl.middleware.ExampleService #full_proofs 0
scalar World.node[898].appl.middleware.ExampleService #half_proofs 5
scalar World.node[898].appl.middleware.ExampleService #failed_proofs 2
scalar World.node[898].appl.middleware.ExampleService #loc_proof_send 202
scalar World.node[898].nic.phy80211p busyTime 0.015311039215697
scalar World.node[898].nic.mac1609_4 ReceivedUnicastPackets 0
scalar World.node[898].nic.mac1609_4 ReceivedBroadcasts 33532
scalar World.node[898].nic.mac1609_4 SentPackets 1164
scalar World.node[898].nic.mac1609_4 SentAcknowledgements 0
scalar World.node[898].nic.mac1609_4 SNIRLostPackets 6223
scalar World.node[898].nic.mac1609_4 RXTXLostPackets 3639
scalar World.node[898].nic.mac1609_4 TotalLostPackets 9862
scalar World.node[898].nic.mac1609_4 DroppedPacketsInMac 0
scalar World.node[898].nic.mac1609_4 TooLittleTime 0
scalar World.node[898].nic.mac1609_4 TimesIntoBackoff 1251
scalar World.node[898].nic.mac1609_4 SlotsBackoff 9523
scalar World.node[898].nic.mac1609_4 NumInternalContention 0
scalar World.node[898].nic.mac1609_4 totalBusyTime 6.035201809208
scalar World.node[928].appl.middleware.CaService #cam_sent 744
scalar World.node[928].appl.middleware.ExampleService #full_proofs 0
scalar World.node[928].appl.middleware.ExampleService #half_proofs 5
scalar World.node[928].appl.middleware.ExampleService #failed_proofs 0
scalar World.node[928].appl.middleware.ExampleService #loc_proof_send 117
scalar World.node[928].nic.phy80211p busyTime 0.010824343558283
scalar World.node[928].nic.mac1609_4 ReceivedUnicastPackets 0
scalar World.node[928].nic.mac1609_4 ReceivedBroadcasts 18244
scalar World.node[928].nic.mac1609_4 SentPackets 861
scalar World.node[928].nic.mac1609_4 SentAcknowledgements 0
scalar World.node[928].nic.mac1609_4 SNIRLostPackets 4149
scalar World.node[928].nic.mac1609_4 RXTXLostPackets 1525
scalar World.node[928].nic.mac1609_4 TotalLostPackets 5674
scalar World.node[928].nic.mac1609_4 DroppedPacketsInMac 0
scalar World.node[928].nic.mac1609_4 TooLittleTime 0
scalar World.node[928].nic.mac1609_4 TimesIntoBackoff 883
scalar World.node[928].nic.mac1609_4 SlotsBackoff 6714
scalar World.node[928].nic.mac1609_4 NumInternalContention 0
scalar World.node[928].nic.mac1609_4 totalBusyTime 3.454640389442
scalar World.node[934].appl.middleware.CaService #cam_sent 586
scalar World.node[934].appl.middleware.ExampleService #full_proofs 0
scalar World.node[934].appl.middleware.ExampleService #half_proofs 5
scalar World.node[934].appl.middleware.ExampleService #failed_proofs 0
scalar World.node[934].appl.middleware.ExampleService #loc_proof_send 95
scalar World.node[934].nic.phy80211p busyTime 0.010268831168831
scalar World.node[934].nic.mac1609_4 ReceivedUnicastPackets 0
scalar World.node[934].nic.mac1609_4 ReceivedBroadcasts 16303
scalar World.node[934].nic.mac1609_4 SentPackets 681
scalar World.node[934].nic.mac1609_4 SentAcknowledgements 0
scalar World.node[934].nic.mac1609_4 SNIRLostPackets 3739
scalar World.node[934].nic.mac1609_4 RXTXLostPackets 1399
scalar World.node[934].nic.mac1609_4 TotalLostPackets 5138
scalar World.node[934].nic.mac1609_4 DroppedPacketsInMac 0
scalar World.node[934].nic.mac1609_4 TooLittleTime 0
scalar World.node[934].nic.mac1609_4 TimesIntoBackoff 700
scalar World.node[934].nic.mac1609_4 SlotsBackoff 5145
scalar World.node[934].nic.mac1609_4 NumInternalContention 0
scalar World.node[934].nic.mac1609_4 totalBusyTime 3.097085537421
scalar World.node[895].appl.middleware.CaService #cam_sent 1044
scalar World.node[895].appl.middleware.ExampleService #full_proofs 0
scalar World.node[895].appl.middleware.ExampleService #half_proofs 7
scalar World.node[895].appl.middleware.ExampleService #failed_proofs 0
scalar World.node[895].appl.middleware.ExampleService #loc_proof_send 205
scalar World.node[895].nic.phy80211p busyTime 0.014030808510649
scalar World.node[895].nic.mac1609_4 ReceivedUnicastPackets 0
scalar World.node[895].nic.mac1609_4 ReceivedBroadcasts 34989
scalar World.node[895].nic.mac1609_4 SentPackets 1249
scalar World.node[895].nic.mac1609_4 SentAcknowledgements 0
scalar World.node[895].nic.mac1609_4 SNIRLostPackets 6953
scalar World.node[895].nic.mac1609_4 RXTXLostPackets 3736
scalar World.node[895].nic.mac1609_4 TotalLostPackets 10689
scalar World.node[895].nic.mac1609_4 DroppedPacketsInMac 0
scalar World.node[895].nic.mac1609_4 TooLittleTime 0
scalar World.node[895].nic.mac1609_4 TimesIntoBackoff 1283
scalar World.node[895].nic.mac1609_4 SlotsBackoff 9644
scalar World.node[895].nic.mac1609_4 NumInternalContention 0
scalar World.node[895].nic.mac1609_4 totalBusyTime 6.382106047495
scalar World.node[914].appl.middleware.CaService #cam_sent 936
scalar World.node[914].appl.middleware.ExampleService #full_proofs 0
scalar World.node[914].appl.middleware.ExampleService #half_proofs 7
scalar World.node[914].appl.middleware.ExampleService #failed_proofs 0
scalar World.node[914].appl.middleware.ExampleService #loc_proof_send 144
scalar World.node[914].nic.phy80211p busyTime 0.01167034825871
scalar World.node[914].nic.mac1609_4 ReceivedUnicastPackets 0
scalar World.node[914].nic.mac1609_4 ReceivedBroadcasts 23156
scalar World.node[914].nic.mac1609_4 SentPackets 1080
scalar World.node[914].nic.mac1609_4 SentAcknowledgements 0
scalar World.node[914].nic.mac1609_4 SNIRLostPackets 6653
scalar World.node[914].nic.mac1609_4 RXTXLostPackets 2151
scalar World.node[914].nic.mac1609_4 TotalLostPackets 8804
scalar World.node[914].nic.mac1609_4 DroppedPacketsInMac 0
scalar World.node[914].nic.mac1609_4 TooLittleTime 0
scalar World.node[914].nic.mac1609_4 TimesIntoBackoff 1094
scalar World.node[914].nic.mac1609_4 SlotsBackoff 7974
scalar World.node[914].nic.mac1609_4 NumInternalContention 0
scalar World.node[914].nic.mac1609_4 totalBusyTime 4.554388169695
scalar World.node[919].appl.middleware.CaService #cam_sent 930
scalar World.node[919].appl.middleware.ExampleService #full_proofs 1
scalar World.node[919].appl.middleware.ExampleService #half_proofs 4
scalar World.node[919].appl.middleware.ExampleService #failed_proofs 1
scalar World.node[919].appl.middleware.ExampleService #loc_proof_send 113
scalar World.node[919].nic.phy80211p busyTime 0.011208349614398
scalar World.node[919].nic.mac1609_4 ReceivedUnicastPackets 0
scalar World.node[919].nic.mac1609_4 ReceivedBroadcasts 23512
scalar World.node[919].nic.mac1609_4 SentPackets 1043
scalar World.node[919].nic.mac1609_4 SentAcknowledgements 0
scalar World.node[919].nic.mac1609_4 SNIRLostPackets 4339
scalar World.node[919].nic.mac1609_4 RXTXLostPackets 1791
scalar World.node[919].nic.mac1609_4 TotalLostPackets 6130
scalar World.node[919].nic.mac1609_4 DroppedPacketsInMac 0
scalar World.node[919].nic.mac1609_4 TooLittleTime 0
scalar World.node[919].nic.mac1609_4 TimesIntoBackoff 1065
scalar World.node[919].nic.mac1609_4 SlotsBackoff 7648
scalar World.node[919].nic.mac1609_4 NumInternalContention 0
scalar World.node[919].nic.mac1609_4 totalBusyTime 4.249579209977
scalar World.node[922].appl.middleware.CaService #cam_sent 762
scalar World.node[922].appl.middleware.ExampleService #full_proofs 1
scalar World.node[922].appl.middleware.ExampleService #half_proofs 6
scalar World.node[922].appl.middleware.ExampleService #failed_proofs 0
scalar World.node[922].appl.middleware.ExampleService #loc_proof_send 124
scalar World.node[922].nic.phy80211p busyTime 0.010587844155845
scalar World.node[922].nic.mac1609_4 ReceivedUnicastPackets 0
scalar World.node[922].nic.mac1609_4 ReceivedBroadcasts 20305
scalar World.node[922].nic.mac1609_4 SentPackets 886
scalar World.node[922].nic.mac1609_4 SentAcknowledgements 0
scalar World.node[922].nic.mac1609_4 SNIRLostPackets 5612
scalar World.node[922].nic.mac1609_4 RXTXLostPackets 1796
scalar World.node[922].nic.mac1609_4 TotalLostPackets 7408
scalar World.node[922].nic.mac1609_4 DroppedPacketsInMac 0
scalar World.node[922].nic.mac1609_4 TooLittleTime 0
scalar World.node[922].nic.mac1609_4 TimesIntoBackoff 912
scalar World.node[922].nic.mac1609_4 SlotsBackoff 6675
scalar World.node[922].nic.mac1609_4 NumInternalContention 0
scalar World.node[922].nic.mac1609_4 totalBusyTime 3.965934578809
scalar World.node[941].appl.middleware.CaService #cam_sent 917
scalar World.node[941].appl.middleware.ExampleService #full_proofs 1
scalar World.node[941].appl.middleware.ExampleService #half_proofs 5
scalar World.node[941].appl.middleware.ExampleService #failed_proofs 0
scalar World.node[941].appl.middleware.ExampleService #loc_proof_send 95
scalar World.node[941].nic.phy80211p busyTime 0.0061370121654498
scalar World.node[941].nic.mac1609_4 ReceivedUnicastPackets 0
scalar World.node[941].nic.mac1609_4 ReceivedBroadcasts 14039
scalar World.node[941].nic.mac1609_4 SentPackets 1012
scalar World.node[941].nic.mac1609_4 SentAcknowledgements 0
scalar World.node[941].nic.mac1609_4 SNIRLostPackets 1868
scalar World.node[941].nic.mac1609_4 RXTXLostPackets 1028
scalar World.node[941].nic.mac1609_4 TotalLostPackets 2896
scalar World.node[941].nic.mac1609_4 DroppedPacketsInMac 0
scalar World.node[941].nic.mac1609_4 TooLittleTime 0
scalar World.node[941].nic.mac1609_4 TimesIntoBackoff 1022
scalar World.node[941].nic.mac1609_4 SlotsBackoff 7497
scalar World.node[941].nic.mac1609_4 NumInternalContention 0
scalar World.node[941].nic.mac1609_4 totalBusyTime 2.55948511327

