version 2
run No_Obstacles-2-20191117-11:54:49-6118
attr configname No_Obstacles
attr datetime 20191117-11:54:49
attr experiment No_Obstacles
attr inifile omnetpp.ini
attr iterationvars $0=80
attr iterationvarsf 80-
attr measurement $0=80
attr network artery.veins.World
attr processid 6118
attr repetition 0
attr replication #0
attr resultdir results
attr runnumber 2
attr seedset 2
param *.traci.launcher.sumocfg "\"No_Obstacles/run.sumo.cfg\""
param *.node[*].nic.mac1609_4.txPower 20mW
param *.node[*].nic.phy80211p.decider "xmldoc(\"config.xml\")"
param *.node[*].nic.phy80211p.analogueModels "xmldoc(\"config.xml\")"
param *.node[*].applType "\"artery.veins.ApplicationLayer\""
param *.node[*].appl.middleware.updateInterval 0.1s
param *.node[*].appl.middleware.datetime "\"2013-06-01 12:35:00\""
param *.node[*].appl.middleware.services "xmldoc(\"services.xml\")"
param *.node[*].appl.middleware.ExampleService.DecisionLogic 80
param *.node[*].appl.middleware.ExampleService.NeighboringWindow 60
param *.traci.core.version -1
param *.traci.launcher.typename "\"PosixLauncher\""
param *.playgroundSizeX 4000m
param *.playgroundSizeY 4000m
param *.playgroundSizeZ 50m
param *.connectionManager.maxInterfDist 1500m
param *.connectionManager.sendDirect true
param *.connectionManager.coreDebug false

vector 0 World.node[0].appl.middleware.ExampleService proof_size ETV
vector 1 World.node[0].appl.middleware.ExampleService proof_requested ETV
vector 2 World.node[3].appl.middleware.ExampleService proof_size ETV
vector 3 World.node[3].appl.middleware.ExampleService proof_requested ETV
3	10902	25.031336662616	3
2	10902	25.031336662616	0
vector 4 World.node[4].appl.middleware.ExampleService proof_size ETV
vector 5 World.node[4].appl.middleware.ExampleService proof_requested ETV
vector 6 World.node[13].appl.middleware.ExampleService proof_size ETV
vector 7 World.node[13].appl.middleware.ExampleService proof_requested ETV
vector 8 World.node[1].appl.middleware.ExampleService proof_size ETV
vector 9 World.node[1].appl.middleware.ExampleService proof_requested ETV
vector 10 World.node[7].appl.middleware.ExampleService proof_size ETV
vector 11 World.node[7].appl.middleware.ExampleService proof_requested ETV
vector 12 World.node[5].appl.middleware.ExampleService proof_size ETV
vector 13 World.node[5].appl.middleware.ExampleService proof_requested ETV
vector 14 World.node[16].appl.middleware.ExampleService proof_size ETV
vector 15 World.node[16].appl.middleware.ExampleService proof_requested ETV
vector 16 World.node[14].appl.middleware.ExampleService proof_size ETV
vector 17 World.node[14].appl.middleware.ExampleService proof_requested ETV
vector 18 World.node[20].appl.middleware.ExampleService proof_size ETV
vector 19 World.node[20].appl.middleware.ExampleService proof_requested ETV
vector 20 World.node[8].appl.middleware.ExampleService proof_size ETV
vector 21 World.node[8].appl.middleware.ExampleService proof_requested ETV
vector 22 World.node[17].appl.middleware.ExampleService proof_size ETV
vector 23 World.node[17].appl.middleware.ExampleService proof_requested ETV
vector 24 World.node[6].appl.middleware.ExampleService proof_size ETV
vector 25 World.node[6].appl.middleware.ExampleService proof_requested ETV
vector 26 World.node[12].appl.middleware.ExampleService proof_size ETV
vector 27 World.node[12].appl.middleware.ExampleService proof_requested ETV
vector 28 World.node[10].appl.middleware.ExampleService proof_size ETV
vector 29 World.node[10].appl.middleware.ExampleService proof_requested ETV
vector 30 World.node[11].appl.middleware.ExampleService proof_size ETV
vector 31 World.node[11].appl.middleware.ExampleService proof_requested ETV
vector 32 World.node[21].appl.middleware.ExampleService proof_size ETV
vector 33 World.node[21].appl.middleware.ExampleService proof_requested ETV
33	308983	90.092579661729	18
32	308983	90.092579661729	10
vector 34 World.node[19].appl.middleware.ExampleService proof_size ETV
vector 35 World.node[19].appl.middleware.ExampleService proof_requested ETV
1	2729	14.097268435382	2
1	186715	74.097268435382	15
0	2729	14.097268435382	1
0	186715	74.097268435382	10
vector 36 World.node[18].appl.middleware.ExampleService proof_size ETV
vector 37 World.node[18].appl.middleware.ExampleService proof_requested ETV
9	79208	53.000515914988	10
8	79208	53.000515914988	6
vector 38 World.node[15].appl.middleware.ExampleService proof_size ETV
vector 39 World.node[15].appl.middleware.ExampleService proof_requested ETV
vector 40 World.node[29].appl.middleware.ExampleService proof_size ETV
vector 41 World.node[29].appl.middleware.ExampleService proof_requested ETV
vector 42 World.node[26].appl.middleware.ExampleService proof_size ETV
vector 43 World.node[26].appl.middleware.ExampleService proof_requested ETV
vector 44 World.node[24].appl.middleware.ExampleService proof_size ETV
vector 45 World.node[24].appl.middleware.ExampleService proof_requested ETV
25	263310	84.084109200723	17
24	263310	84.084109200723	9
vector 46 World.node[22].appl.middleware.ExampleService proof_size ETV
vector 47 World.node[22].appl.middleware.ExampleService proof_requested ETV
vector 48 World.node[33].appl.middleware.ExampleService proof_size ETV
vector 49 World.node[33].appl.middleware.ExampleService proof_requested ETV
vector 50 World.node[23].appl.middleware.ExampleService proof_size ETV
vector 51 World.node[23].appl.middleware.ExampleService proof_requested ETV
35	359103	96.081475073355	18
34	359103	96.081475073355	9
vector 52 World.node[34].appl.middleware.ExampleService proof_size ETV
vector 53 World.node[34].appl.middleware.ExampleService proof_requested ETV
47	1041964	144.042278401437	23
46	1041964	144.042278401437	12
vector 54 World.node[25].appl.middleware.ExampleService proof_size ETV
vector 55 World.node[25].appl.middleware.ExampleService proof_requested ETV
vector 56 World.node[31].appl.middleware.ExampleService proof_size ETV
vector 57 World.node[31].appl.middleware.ExampleService proof_requested ETV
7	63573	49.156752505153	10
7	491019	109.056752505153	21
6	63573	49.156752505153	2
6	491019	109.056752505153	8
vector 58 World.node[32].appl.middleware.ExampleService proof_size ETV
vector 59 World.node[32].appl.middleware.ExampleService proof_requested ETV
vector 60 World.node[27].appl.middleware.ExampleService proof_size ETV
vector 61 World.node[27].appl.middleware.ExampleService proof_requested ETV
vector 62 World.node[35].appl.middleware.ExampleService proof_size ETV
vector 63 World.node[35].appl.middleware.ExampleService proof_requested ETV
vector 64 World.node[38].appl.middleware.ExampleService proof_size ETV
vector 65 World.node[38].appl.middleware.ExampleService proof_requested ETV
vector 66 World.node[30].appl.middleware.ExampleService proof_size ETV
vector 67 World.node[30].appl.middleware.ExampleService proof_requested ETV
vector 68 World.node[28].appl.middleware.ExampleService proof_size ETV
vector 69 World.node[28].appl.middleware.ExampleService proof_requested ETV
21	237635	81.040538835432	17
21	964182	141.040538835432	26
20	237635	81.040538835432	6
20	964182	141.040538835432	11
vector 70 World.node[37].appl.middleware.ExampleService proof_size ETV
vector 71 World.node[37].appl.middleware.ExampleService proof_requested ETV
vector 72 World.node[42].appl.middleware.ExampleService proof_size ETV
vector 73 World.node[42].appl.middleware.ExampleService proof_requested ETV
vector 74 World.node[40].appl.middleware.ExampleService proof_size ETV
vector 75 World.node[40].appl.middleware.ExampleService proof_requested ETV
vector 76 World.node[41].appl.middleware.ExampleService proof_size ETV
vector 77 World.node[41].appl.middleware.ExampleService proof_requested ETV
63	1401042	162.061108844797	29
62	1401042	162.061108844797	10
39	510250	111.073958206223	21
39	1586696	171.073958206223	26
38	510250	111.073958206223	9
38	1586696	171.073958206223	11
15	192448	75.04190922745	8
15	853773	135.04190922745	26
14	192448	75.04190922745	3
14	853773	135.04190922745	14
75	1785150	182.003651083633	31
74	1785150	182.003651083633	8
vector 78 World.node[36].appl.middleware.ExampleService proof_size ETV
vector 79 World.node[36].appl.middleware.ExampleService proof_requested ETV
17	198759	76.001274420507	9
17	870507	136.001274420507	25
16	198759	76.001274420507	0
16	870507	136.001274420507	3
29	277639	86.095459119533	16
29	1089115	146.095459119533	26
28	277639	86.095459119533	9
28	1089115	146.095459119533	14
11	89478	55.044994450035	12
11	553022	115.044994450035	20
11	1664429	175.044994450035	30
10	89478	55.044994450035	4
10	553022	115.044994450035	9
10	1664429	175.044994450035	16
67	1425801	163.073869898519	26
66	1425801	163.073869898519	2
vector 80 World.node[46].appl.middleware.ExampleService proof_size ETV
vector 81 World.node[46].appl.middleware.ExampleService proof_requested ETV
vector 82 World.node[39].appl.middleware.ExampleService proof_size ETV
vector 83 World.node[39].appl.middleware.ExampleService proof_requested ETV
vector 84 World.node[53].appl.middleware.ExampleService proof_size ETV
vector 85 World.node[53].appl.middleware.ExampleService proof_requested ETV
vector 86 World.node[48].appl.middleware.ExampleService proof_size ETV
vector 87 World.node[48].appl.middleware.ExampleService proof_requested ETV
vector 88 World.node[44].appl.middleware.ExampleService proof_size ETV
vector 89 World.node[44].appl.middleware.ExampleService proof_requested ETV
vector 90 World.node[45].appl.middleware.ExampleService proof_size ETV
vector 91 World.node[45].appl.middleware.ExampleService proof_requested ETV
vector 92 World.node[52].appl.middleware.ExampleService proof_size ETV
vector 93 World.node[52].appl.middleware.ExampleService proof_requested ETV
vector 94 World.node[51].appl.middleware.ExampleService proof_size ETV
vector 95 World.node[51].appl.middleware.ExampleService proof_requested ETV
61	1375955	161.024568438879	29
61	2791703	221.024568438879	24
60	1375955	161.024568438879	9
60	2791703	221.024568438879	6
vector 96 World.node[43].appl.middleware.ExampleService proof_size ETV
vector 97 World.node[43].appl.middleware.ExampleService proof_requested ETV
49	1065132	145.032567802328	27
49	2365288	205.032567802328	21
48	1065132	145.032567802328	13
48	2365288	205.032567802328	10
vector 98 World.node[54].appl.middleware.ExampleService proof_size ETV
vector 99 World.node[54].appl.middleware.ExampleService proof_requested ETV
vector 100 World.node[49].appl.middleware.ExampleService proof_size ETV
vector 101 World.node[49].appl.middleware.ExampleService proof_requested ETV
57	1197524	152.017666098336	28
57	2543091	212.017666098336	33
56	1197524	152.017666098336	5
56	2543091	212.017666098336	8
45	883072	137.00108278729	27
45	2155908	197.00108278729	30
44	883072	137.00108278729	11
44	2155908	197.00108278729	14
27	276918	86.07114040805	15
27	1087648	146.07114040805	28
27	2392207	206.07114040805	27
26	276918	86.07114040805	9
26	1087648	146.07114040805	6
26	2392207	206.07114040805	6
85	2665933	216.073560281447	27
84	2665933	216.073560281447	10
vector 102 World.node[47].appl.middleware.ExampleService proof_size ETV
vector 103 World.node[47].appl.middleware.ExampleService proof_requested ETV
vector 104 World.node[58].appl.middleware.ExampleService proof_size ETV
vector 105 World.node[58].appl.middleware.ExampleService proof_requested ETV
vector 106 World.node[50].appl.middleware.ExampleService proof_size ETV
vector 107 World.node[50].appl.middleware.ExampleService proof_requested ETV
43	834948	134.094621369219	16
43	2092814	194.094621369219	31
42	834948	134.094621369219	8
42	2092814	194.094621369219	13
65	1422699	163.011153367441	28
65	2858965	223.011153367441	34
64	1422699	163.011153367441	3
64	2858965	223.011153367441	8
vector 108 World.node[59].appl.middleware.ExampleService proof_size ETV
vector 109 World.node[59].appl.middleware.ExampleService proof_requested ETV
vector 110 World.node[61].appl.middleware.ExampleService proof_size ETV
vector 111 World.node[61].appl.middleware.ExampleService proof_requested ETV
99	3213382	234.06189130058	36
98	3213382	234.06189130058	17
19	230731	80.095378547255	17
19	947647	140.095378547255	27
19	2236700	200.095378547255	31
19	3955566	260.095378547255	37
18	230731	80.095378547255	11
18	947647	140.095378547255	13
18	2236700	200.095378547255	13
18	3955566	260.095378547255	13
5	48012	45.013752784627	8
5	440474	105.013752784627	20
5	1459488	165.013752784627	28
5	2920564	225.013752784627	23
4	48012	45.013752784627	4
4	440474	105.013752784627	7
4	1459488	165.013752784627	11
4	2920564	225.013752784627	9
79	2001034	190.095934270835	28
79	3676734	250.095934270835	35
78	2001034	190.095934270835	14
78	3676734	250.095934270835	15
vector 112 World.node[55].appl.middleware.ExampleService proof_size ETV
vector 113 World.node[55].appl.middleware.ExampleService proof_requested ETV
55	1187962	151.08509180157	29
55	2528688	211.08509180157	32
55	4262266	271.08509180157	37
54	1187962	151.08509180157	14
54	2528688	211.08509180157	0
54	4262266	271.08509180157	7
31	284559	87.025891292468	13
31	1108623	147.025891292468	27
31	2416880	207.025891292468	28
31	4145927	267.025891292468	35
30	284559	87.025891292468	8
30	1108623	147.025891292468	12
30	2416880	207.025891292468	11
30	4145927	267.025891292468	8
37	477290	108.070765523612	21
37	1528959	168.070765523612	30
37	3027635	228.070765523612	35
36	477290	108.070765523612	8
36	1528959	168.070765523612	11
36	3027635	228.070765523612	17
vector 114 World.node[62].appl.middleware.ExampleService proof_size ETV
vector 115 World.node[62].appl.middleware.ExampleService proof_requested ETV
vector 116 World.node[56].appl.middleware.ExampleService proof_size ETV
vector 117 World.node[56].appl.middleware.ExampleService proof_requested ETV
69	1439261	164.037583551882	23
69	2888893	224.037583551882	19
69	4683572	284.037583551882	34
68	1439261	164.037583551882	7
68	2888893	224.037583551882	9
68	4683572	284.037583551882	23
vector 118 World.node[57].appl.middleware.ExampleService proof_size ETV
vector 119 World.node[57].appl.middleware.ExampleService proof_requested ETV
vector 120 World.node[60].appl.middleware.ExampleService proof_size ETV
vector 121 World.node[60].appl.middleware.ExampleService proof_requested ETV
117	4690470	284.098079712153	36
116	4690470	284.098079712153	0
13	152378	68.020182836498	14
13	721422	128.020182836498	24
13	1942200	188.020182836498	35
13	3605121	248.020182836498	35
12	152378	68.020182836498	2
12	721422	128.020182836498	5
12	1942200	188.020182836498	10
12	3605121	248.020182836498	10
vector 122 World.node[69].appl.middleware.ExampleService proof_size ETV
vector 123 World.node[69].appl.middleware.ExampleService proof_requested ETV
vector 124 World.node[64].appl.middleware.ExampleService proof_size ETV
vector 125 World.node[64].appl.middleware.ExampleService proof_requested ETV
vector 126 World.node[66].appl.middleware.ExampleService proof_size ETV
vector 127 World.node[66].appl.middleware.ExampleService proof_requested ETV
vector 128 World.node[73].appl.middleware.ExampleService proof_size ETV
vector 129 World.node[73].appl.middleware.ExampleService proof_requested ETV
vector 130 World.node[70].appl.middleware.ExampleService proof_size ETV
vector 131 World.node[70].appl.middleware.ExampleService proof_requested ETV
vector 132 World.node[65].appl.middleware.ExampleService proof_size ETV
vector 133 World.node[65].appl.middleware.ExampleService proof_requested ETV
vector 134 World.node[71].appl.middleware.ExampleService proof_size ETV
vector 135 World.node[71].appl.middleware.ExampleService proof_requested ETV
83	2527240	211.057093752036	28
83	4260062	271.057093752036	37
82	2527240	211.057093752036	14
82	4260062	271.057093752036	9
vector 136 World.node[67].appl.middleware.ExampleService proof_size ETV
vector 137 World.node[67].appl.middleware.ExampleService proof_requested ETV
137	5661703	317.052751219878	30
136	5661703	317.052751219878	9
vector 138 World.node[72].appl.middleware.ExampleService proof_size ETV
vector 139 World.node[72].appl.middleware.ExampleService proof_requested ETV
vector 140 World.node[74].appl.middleware.ExampleService proof_size ETV
vector 141 World.node[74].appl.middleware.ExampleService proof_requested ETV
119	4784920	287.052477743477	32
118	4784920	287.052477743477	13
59	1309784	158.028351757722	28
59	2712918	218.028351757722	31
59	4494190	278.028351757722	35
58	1309784	158.028351757722	11
58	2712918	218.028351757722	11
58	4494190	278.028351757722	10
vector 142 World.node[76].appl.middleware.ExampleService proof_size ETV
vector 143 World.node[76].appl.middleware.ExampleService proof_requested ETV
51	1130331	148.051071145781	28
51	2449229	208.051071145781	29
51	4175525	268.051071145781	37
51	6035743	328.051071145781	21
50	1130331	148.051071145781	17
50	2449229	208.051071145781	15
50	4175525	268.051071145781	10
50	6035743	328.051071145781	5
vector 144 World.node[83].appl.middleware.ExampleService proof_size ETV
vector 145 World.node[83].appl.middleware.ExampleService proof_requested ETV
vector 146 World.node[75].appl.middleware.ExampleService proof_size ETV
vector 147 World.node[75].appl.middleware.ExampleService proof_requested ETV
93	2972326	226.081442063302	33
93	4764194	286.081442063302	31
93	6727724	346.081442063302	38
92	2972326	226.081442063302	6
92	4764194	286.081442063302	5
92	6727724	346.081442063302	7
vector 148 World.node[82].appl.middleware.ExampleService proof_size ETV
vector 149 World.node[82].appl.middleware.ExampleService proof_requested ETV
71	1528737	168.061647167266	29
71	3026584	228.061647167266	32
71	4813297	288.061647167266	26
71	6808318	348.061647167266	21
70	1528737	168.061647167266	10
70	3026584	228.061647167266	13
70	4813297	288.061647167266	13
70	6808318	348.061647167266	8
97	3028381	228.07782451096	21
97	4814445	288.07782451096	33
97	6812272	348.07782451096	39
96	3028381	228.07782451096	15
96	4814445	288.07782451096	0
96	6812272	348.07782451096	15
105	3582884	247.097711405344	29
105	5370675	307.097711405344	23
104	3582884	247.097711405344	3
104	5370675	307.097711405344	3
23	238010	81.057098338986	16
23	966932	141.057098338986	28
23	2258105	201.057098338986	30
23	3980509	261.057098338986	36
23	5801224	321.057098338986	39
22	238010	81.057098338986	8
22	966932	141.057098338986	1
22	2258105	201.057098338986	4
22	3980509	261.057098338986	14
22	5801224	321.057098338986	20
vector 150 World.node[77].appl.middleware.ExampleService proof_size ETV
vector 151 World.node[77].appl.middleware.ExampleService proof_requested ETV
109	4005128	262.013987056562	34
109	5828463	322.013987056562	38
108	4005128	262.013987056562	12
108	5828463	322.013987056562	14
103	3545276	246.004549138062	31
103	5324889	306.004549138062	35
102	3545276	246.004549138062	10
102	5324889	306.004549138062	14
vector 152 World.node[91].appl.middleware.ExampleService proof_size ETV
vector 153 World.node[91].appl.middleware.ExampleService proof_requested ETV
vector 154 World.node[88].appl.middleware.ExampleService proof_size ETV
vector 155 World.node[88].appl.middleware.ExampleService proof_requested ETV
vector 156 World.node[92].appl.middleware.ExampleService proof_size ETV
vector 157 World.node[92].appl.middleware.ExampleService proof_requested ETV
101	3266717	236.031311217509	31
101	5046800	296.031311217509	33
101	7101517	356.031311217509	41
100	3266717	236.031311217509	10
100	5046800	296.031311217509	10
100	7101517	356.031311217509	9
vector 158 World.node[87].appl.middleware.ExampleService proof_size ETV
vector 159 World.node[87].appl.middleware.ExampleService proof_requested ETV
vector 160 World.node[85].appl.middleware.ExampleService proof_size ETV
vector 161 World.node[85].appl.middleware.ExampleService proof_requested ETV
vector 162 World.node[78].appl.middleware.ExampleService proof_size ETV
vector 163 World.node[78].appl.middleware.ExampleService proof_requested ETV
113	4466894	277.017357025878	36
113	6360517	337.017357025878	40
112	4466894	277.017357025878	21
112	6360517	337.017357025878	15
vector 164 World.node[80].appl.middleware.ExampleService proof_size ETV
vector 165 World.node[80].appl.middleware.ExampleService proof_requested ETV
77	1844168	184.077920435672	26
77	3487644	244.077920435672	24
77	5276383	304.077920435672	30
77	7398470	364.077920435672	38
76	1844168	184.077920435672	10
76	3487644	244.077920435672	9
76	5276383	304.077920435672	12
76	7398470	364.077920435672	16
vector 166 World.node[84].appl.middleware.ExampleService proof_size ETV
vector 167 World.node[84].appl.middleware.ExampleService proof_requested ETV
vector 168 World.node[89].appl.middleware.ExampleService proof_size ETV
vector 169 World.node[89].appl.middleware.ExampleService proof_requested ETV
53	1149656	149.042793385941	29
53	2476310	209.042793385941	27
53	4207884	269.042793385941	33
53	6064169	329.042793385941	38
52	1149656	149.042793385941	14
52	2476310	209.042793385941	13
52	4207884	269.042793385941	7
52	6064169	329.042793385941	0
121	4785710	287.05772266821	33
121	6755812	347.05772266821	38
120	4785710	287.05772266821	14
120	6755812	347.05772266821	0
73	1663135	175.019739585533	17
73	3241184	235.019739585533	21
73	5016711	295.019739585533	35
73	7059380	355.019739585533	42
72	1663135	175.019739585533	5
72	3241184	235.019739585533	7
72	5016711	295.019739585533	10
72	7059380	355.019739585533	6
vector 170 World.node[81].appl.middleware.ExampleService proof_size ETV
vector 171 World.node[81].appl.middleware.ExampleService proof_requested ETV
vector 172 World.node[99].appl.middleware.ExampleService proof_size ETV
vector 173 World.node[99].appl.middleware.ExampleService proof_requested ETV
vector 174 World.node[90].appl.middleware.ExampleService proof_size ETV
vector 175 World.node[90].appl.middleware.ExampleService proof_requested ETV
vector 176 World.node[86].appl.middleware.ExampleService proof_size ETV
vector 177 World.node[86].appl.middleware.ExampleService proof_requested ETV
139	5803632	321.077482773317	28
139	8137679	381.077482773317	40
138	5803632	321.077482773317	21
138	8137679	381.077482773317	18
vector 178 World.node[94].appl.middleware.ExampleService proof_size ETV
vector 179 World.node[94].appl.middleware.ExampleService proof_requested ETV
41	796624	132.061391671072	25
41	2044840	192.061391671072	29
41	3731989	252.061391671072	35
41	5522607	312.061391671072	37
41	7746676	372.061391671072	38
40	796624	132.061391671072	11
40	2044840	192.061391671072	14
40	3731989	252.061391671072	16
40	5522607	312.061391671072	13
40	7746676	372.061391671072	19
81	2500319	210.005863434123	28
81	4231307	270.005863434123	31
81	6097129	330.005863434123	37
81	8497930	390.005863434123	39
80	2500319	210.005863434123	17
80	4231307	270.005863434123	8
80	6097129	330.005863434123	13
80	8497930	390.005863434123	0
vector 180 World.node[104].appl.middleware.ExampleService proof_size ETV
vector 181 World.node[104].appl.middleware.ExampleService proof_requested ETV
95	2993684	227.049161096173	29
95	4784189	287.049161096173	32
95	6755408	347.049161096173	40
95	9207752	407.049161096173	43
94	2993684	227.049161096173	12
94	4784189	287.049161096173	16
94	6755408	347.049161096173	10
94	9207752	407.049161096173	19
vector 182 World.node[103].appl.middleware.ExampleService proof_size ETV
vector 183 World.node[103].appl.middleware.ExampleService proof_requested ETV
vector 184 World.node[93].appl.middleware.ExampleService proof_size ETV
vector 185 World.node[93].appl.middleware.ExampleService proof_requested ETV
171	8254931	384.038954712846	40
170	8254931	384.038954712846	22
vector 186 World.node[96].appl.middleware.ExampleService proof_size ETV
vector 187 World.node[96].appl.middleware.ExampleService proof_requested ETV
vector 188 World.node[95].appl.middleware.ExampleService proof_size ETV
vector 189 World.node[95].appl.middleware.ExampleService proof_requested ETV
vector 190 World.node[97].appl.middleware.ExampleService proof_size ETV
vector 191 World.node[97].appl.middleware.ExampleService proof_requested ETV
vector 192 World.node[105].appl.middleware.ExampleService proof_size ETV
vector 193 World.node[105].appl.middleware.ExampleService proof_requested ETV
163	7599412	369.013850898342	38
162	7599412	369.013850898342	14
vector 194 World.node[108].appl.middleware.ExampleService proof_size ETV
vector 195 World.node[108].appl.middleware.ExampleService proof_requested ETV
vector 196 World.node[101].appl.middleware.ExampleService proof_size ETV
vector 197 World.node[101].appl.middleware.ExampleService proof_requested ETV
vector 198 World.node[100].appl.middleware.ExampleService proof_size ETV
vector 199 World.node[100].appl.middleware.ExampleService proof_requested ETV
vector 200 World.node[102].appl.middleware.ExampleService proof_size ETV
vector 201 World.node[102].appl.middleware.ExampleService proof_requested ETV
89	2713678	218.069296457781	31
89	4498085	278.069296457781	35
89	6399476	338.069296457781	38
89	8859994	398.069296457781	45
88	2713678	218.069296457781	14
88	4498085	278.069296457781	9
88	6399476	338.069296457781	1
88	8859994	398.069296457781	21
133	5579407	314.089062636904	36
133	7822043	374.089062636904	37
133	10476559	434.089062636904	40
132	5579407	314.089062636904	13
132	7822043	374.089062636904	19
132	10476559	434.089062636904	15
vector 202 World.node[98].appl.middleware.ExampleService proof_size ETV
vector 203 World.node[98].appl.middleware.ExampleService proof_requested ETV
vector 204 World.node[107].appl.middleware.ExampleService proof_size ETV
vector 205 World.node[107].appl.middleware.ExampleService proof_requested ETV
127	5164433	300.073788884934	28
127	7241990	360.073788884934	40
127	9793918	420.073788884934	43
126	5164433	300.073788884934	11
126	7241990	360.073788884934	9
126	9793918	420.073788884934	16
vector 206 World.node[109].appl.middleware.ExampleService proof_size ETV
vector 207 World.node[109].appl.middleware.ExampleService proof_requested ETV
111	4207600	269.03080789838	37
111	6063298	329.03080789838	39
111	8459154	389.03080789838	40
111	11170183	449.03080789838	49
110	4207600	269.03080789838	13
110	6063298	329.03080789838	8
110	8459154	389.03080789838	17
110	11170183	449.03080789838	6
141	5833359	322.077648581425	38
141	8182736	382.077648581425	39
141	10853165	442.077648581425	45
140	5833359	322.077648581425	0
140	8182736	382.077648581425	23
140	10853165	442.077648581425	6
vector 208 World.node[112].appl.middleware.ExampleService proof_size ETV
vector 209 World.node[112].appl.middleware.ExampleService proof_requested ETV
vector 210 World.node[106].appl.middleware.ExampleService proof_size ETV
vector 211 World.node[106].appl.middleware.ExampleService proof_requested ETV
181	9202905	407.004039010662	39
180	9202905	407.004039010662	14
vector 212 World.node[118].appl.middleware.ExampleService proof_size ETV
vector 213 World.node[118].appl.middleware.ExampleService proof_requested ETV
vector 214 World.node[111].appl.middleware.ExampleService proof_size ETV
vector 215 World.node[111].appl.middleware.ExampleService proof_requested ETV
143	6513743	341.059817155311	32
143	8970603	401.059817155311	44
142	6513743	341.059817155311	11
142	8970603	401.059817155311	20
147	6878809	350.057982710563	39
147	9342798	410.057982710563	44
146	6878809	350.057982710563	17
146	9342798	410.057982710563	14
vector 216 World.node[115].appl.middleware.ExampleService proof_size ETV
vector 217 World.node[115].appl.middleware.ExampleService proof_requested ETV
125	5138698	299.057631353335	32
125	7206379	359.057631353335	39
125	9749743	419.057631353335	43
124	5138698	299.057631353335	17
124	7206379	359.057631353335	13
124	9749743	419.057631353335	17
135	5579682	314.093629894475	37
135	7822642	374.093629894475	39
135	10477224	434.093629894475	43
134	5579682	314.093629894475	14
134	7822642	374.093629894475	9
134	10477224	434.093629894475	16
161	7516063	367.030721770483	21
161	10124383	427.030721770483	40
160	7516063	367.030721770483	11
160	10124383	427.030721770483	18
vector 218 World.node[116].appl.middleware.ExampleService proof_size ETV
vector 219 World.node[116].appl.middleware.ExampleService proof_requested ETV
123	5119753	298.067404953251	34
123	7183053	358.067404953251	42
123	9710862	418.067404953251	43
122	5119753	298.067404953251	16
122	7183053	358.067404953251	14
122	9710862	418.067404953251	0
87	2712916	218.025949385623	26
87	4493757	278.025949385623	30
87	6395160	338.025949385623	39
87	8851547	398.025949385623	42
87	11640373	458.025949385623	46
86	2712916	218.025949385623	15
86	4493757	278.025949385623	12
86	6395160	338.025949385623	3
86	8851547	398.025949385623	17
86	11640373	458.025949385623	24
vector 220 World.node[117].appl.middleware.ExampleService proof_size ETV
vector 221 World.node[117].appl.middleware.ExampleService proof_requested ETV
145	6764477	347.082328819996	31
145	9210234	407.082328819996	43
145	12174078	467.082328819996	48
144	6764477	347.082328819996	0
144	9210234	407.082328819996	1
144	12174078	467.082328819996	18
179	8779468	396.03644242587	42
179	11542862	456.03644242587	46
178	8779468	396.03644242587	20
178	11542862	456.03644242587	22
vector 222 World.node[110].appl.middleware.ExampleService proof_size ETV
vector 223 World.node[110].appl.middleware.ExampleService proof_requested ETV
vector 224 World.node[120].appl.middleware.ExampleService proof_size ETV
vector 225 World.node[120].appl.middleware.ExampleService proof_requested ETV
vector 226 World.node[113].appl.middleware.ExampleService proof_size ETV
vector 227 World.node[113].appl.middleware.ExampleService proof_requested ETV
183	9398553	411.079485544795	43
183	12401259	471.079485544795	44
182	9398553	411.079485544795	10
182	12401259	471.079485544795	20
vector 228 World.node[121].appl.middleware.ExampleService proof_size ETV
vector 229 World.node[121].appl.middleware.ExampleService proof_requested ETV
193	9749747	419.061173475813	43
193	12775868	479.061173475813	26
192	9749747	419.061173475813	2
192	12775868	479.061173475813	15
215	11597599	457.048228522693	48
214	11597599	457.048228522693	0
107	3694605	251.010960295028	35
107	5478218	311.010960295028	36
107	7681193	371.010960295028	41
107	10320160	431.010960295028	46
107	13333954	491.010960295028	46
106	3694605	251.010960295028	14
106	5478218	311.010960295028	13
106	7681193	371.010960295028	24
106	10320160	431.010960295028	20
106	13333954	491.010960295028	16
vector 230 World.node[114].appl.middleware.ExampleService proof_size ETV
vector 231 World.node[114].appl.middleware.ExampleService proof_requested ETV
195	10076498	426.043478424544	38
195	13119938	486.043478424544	40
194	10076498	426.043478424544	15
194	13119938	486.043478424544	17
159	7482435	366.081300530559	38
159	10084010	426.081300530559	44
159	13125353	486.081300530559	36
158	7482435	366.081300530559	16
158	10084010	426.081300530559	27
158	13125353	486.081300530559	13
vector 232 World.node[123].appl.middleware.ExampleService proof_size ETV
vector 233 World.node[123].appl.middleware.ExampleService proof_requested ETV
vector 234 World.node[124].appl.middleware.ExampleService proof_size ETV
vector 235 World.node[124].appl.middleware.ExampleService proof_requested ETV
vector 236 World.node[119].appl.middleware.ExampleService proof_size ETV
vector 237 World.node[119].appl.middleware.ExampleService proof_requested ETV
155	7348288	363.023701522057	39
155	9916474	423.023701522057	43
155	12953863	483.023701522057	29
154	7348288	363.023701522057	10
154	9916474	423.023701522057	19
154	12953863	483.023701522057	11
197	10123463	427.025563276513	38
197	13169195	487.025563276513	31
196	10123463	427.025563276513	11
196	13169195	487.025563276513	18
129	5421073	309.015337677742	32
129	7599414	369.015337677742	38
129	10217866	429.015337677742	45
129	13254488	489.015337677742	40
128	5421073	309.015337677742	13
128	7599414	369.015337677742	0
128	10217866	429.015337677742	12
128	13254488	489.015337677742	11
vector 238 World.node[128].appl.middleware.ExampleService proof_size ETV
vector 239 World.node[128].appl.middleware.ExampleService proof_requested ETV
209	11258555	451.010432078806	47
208	11258555	451.010432078806	4
vector 240 World.node[125].appl.middleware.ExampleService proof_size ETV
vector 241 World.node[125].appl.middleware.ExampleService proof_requested ETV
vector 242 World.node[129].appl.middleware.ExampleService proof_size ETV
vector 243 World.node[129].appl.middleware.ExampleService proof_requested ETV
149	6914864	351.009305829555	41
149	9391668	411.009305829555	40
149	12388210	471.009305829555	27
148	6914864	351.009305829555	12
148	9391668	411.009305829555	9
148	12388210	471.009305829555	0
205	10890775	443.093763545854	44
205	13794410	503.093763545854	19
204	10890775	443.093763545854	9
204	13794410	503.093763545854	5
115	4690221	284.097538457718	35
115	6642012	344.097538457718	42
115	9094487	404.097538457718	40
115	12011109	464.097538457718	38
114	4690221	284.097538457718	8
114	6642012	344.097538457718	0
114	9094487	404.097538457718	1
114	12011109	464.097538457718	18
151	7181012	358.035451434366	38
151	9708737	418.035451434366	43
151	12733321	478.035451434366	38
150	7181012	358.035451434366	10
150	9708737	418.035451434366	18
150	12733321	478.035451434366	12
213	11595955	457.037393920892	34
213	14345366	517.037393920892	34
212	11595955	457.037393920892	17
212	14345366	517.037393920892	12
vector 244 World.node[122].appl.middleware.ExampleService proof_size ETV
vector 245 World.node[122].appl.middleware.ExampleService proof_requested ETV
229	13207366	488.055153364665	36
228	13207366	488.055153364665	13
91	2890453	224.064629158052	32
91	4687573	284.064629158052	34
91	6639695	344.064629158052	41
91	9090714	404.064629158052	44
91	12006213	464.064629158052	42
91	14595487	524.064629158052	33
90	2890453	224.064629158052	17
90	4687573	284.064629158052	18
90	6639695	344.064629158052	14
90	9090714	404.064629158052	19
90	12006213	464.064629158052	23
90	14595487	524.064629158052	14
vector 246 World.node[127].appl.middleware.ExampleService proof_size ETV
vector 247 World.node[127].appl.middleware.ExampleService proof_requested ETV
vector 248 World.node[126].appl.middleware.ExampleService proof_size ETV
vector 249 World.node[126].appl.middleware.ExampleService proof_requested ETV
211	11305302	452.065406368207	48
211	14158864	512.065406368207	35
210	11305302	452.065406368207	11
210	14158864	512.065406368207	18
235	13718861	501.087156276847	40
234	13718861	501.087156276847	13
177	8497928	390.001958424924	34
177	11220796	450.001958424924	47
177	14077899	510.001958424924	40
176	8497928	390.001958424924	6
176	11220796	450.001958424924	11
176	14077899	510.001958424924	14
169	8085925	380.038239619182	42
169	10743917	440.038239619182	46
169	13677267	500.038239619182	40
168	8085925	380.038239619182	19
168	10743917	440.038239619182	14
168	13677267	500.038239619182	13
201	10437595	433.084511548234	45
201	13419784	493.084511548234	40
200	10437595	433.084511548234	19
200	13419784	493.084511548234	13
153	7277247	361.017416851851	13
153	9841963	421.017416851851	40
153	12874523	481.017416851851	40
153	15207258	541.017416851851	39
152	7277247	361.017416851851	2
152	9841963	421.017416851851	13
152	12874523	481.017416851851	9
152	15207258	541.017416851851	11
vector 250 World.node[136].appl.middleware.ExampleService proof_size ETV
vector 251 World.node[136].appl.middleware.ExampleService proof_requested ETV
vector 252 World.node[133].appl.middleware.ExampleService proof_size ETV
vector 253 World.node[133].appl.middleware.ExampleService proof_requested ETV
vector 254 World.node[132].appl.middleware.ExampleService proof_size ETV
vector 255 World.node[132].appl.middleware.ExampleService proof_requested ETV
245	14931969	533.043097358686	41
244	14931969	533.043097358686	18
237	13760750	502.093488133652	34
236	13760750	502.093488133652	8
vector 256 World.node[131].appl.middleware.ExampleService proof_size ETV
vector 257 World.node[131].appl.middleware.ExampleService proof_requested ETV
165	7749309	372.092914494616	40
165	10392255	432.092914494616	38
165	13381486	492.092914494616	35
165	15609761	552.092914494616	35
164	7749309	372.092914494616	1
164	10392255	432.092914494616	14
164	13381486	492.092914494616	14
164	15609761	552.092914494616	13
vector 258 World.node[137].appl.middleware.ExampleService proof_size ETV
vector 259 World.node[137].appl.middleware.ExampleService proof_requested ETV
vector 260 World.node[135].appl.middleware.ExampleService proof_size ETV
vector 261 World.node[135].appl.middleware.ExampleService proof_requested ETV
vector 262 World.node[130].appl.middleware.ExampleService proof_size ETV
vector 263 World.node[130].appl.middleware.ExampleService proof_requested ETV
199	10269857	430.00934701662	44
199	13295578	490.00934701662	42
199	15524120	550.00934701662	36
198	10269857	430.00934701662	1
198	13295578	490.00934701662	6
198	15524120	550.00934701662	11
vector 264 World.node[134].appl.middleware.ExampleService proof_size ETV
vector 265 World.node[134].appl.middleware.ExampleService proof_requested ETV
247	15119472	538.094816705864	37
246	15119472	538.094816705864	15
249	15150187	539.089545531524	37
248	15150187	539.089545531524	17
221	12485123	473.030518377316	46
221	14931370	533.030518377316	41
220	12485123	473.030518377316	34
220	14931370	533.030518377316	27
261	16035323	564.08932048406	39
260	16035323	564.08932048406	14
vector 266 World.node[151].appl.middleware.ExampleService proof_size ETV
vector 267 World.node[151].appl.middleware.ExampleService proof_requested ETV
223	12641083	476.070026731421	41
223	15043243	536.070026731421	40
222	12641083	476.070026731421	13
222	15043243	536.070026731421	9
vector 268 World.node[143].appl.middleware.ExampleService proof_size ETV
vector 269 World.node[143].appl.middleware.ExampleService proof_requested ETV
vector 270 World.node[138].appl.middleware.ExampleService proof_size ETV
vector 271 World.node[138].appl.middleware.ExampleService proof_requested ETV
167	7990442	378.020418961602	37
167	10652053	438.020418961602	45
167	13593487	498.020418961602	26
167	15817741	558.020418961602	35
166	7990442	378.020418961602	15
166	10652053	438.020418961602	14
166	13593487	498.020418961602	9
166	15817741	558.020418961602	8
173	8302412	385.116043079365	25
173	10969232	445.016043079365	44
173	13859159	505.016043079365	41
173	16059353	565.016043079365	30
172	8302412	385.116043079365	0
172	10969232	445.016043079365	7
172	13859159	505.016043079365	11
172	16059353	565.016043079365	7
vector 272 World.node[139].appl.middleware.ExampleService proof_size ETV
vector 273 World.node[139].appl.middleware.ExampleService proof_requested ETV
vector 274 World.node[140].appl.middleware.ExampleService proof_size ETV
vector 275 World.node[140].appl.middleware.ExampleService proof_requested ETV
175	8424138	388.037144259596	35
175	11135803	448.037144259596	46
175	13995253	508.037144259596	39
175	16171725	568.037144259596	30
174	8424138	388.037144259596	13
174	11135803	448.037144259596	10
174	13995253	508.037144259596	13
174	16171725	568.037144259596	13
vector 276 World.node[141].appl.middleware.ExampleService proof_size ETV
vector 277 World.node[141].appl.middleware.ExampleService proof_requested ETV
vector 278 World.node[144].appl.middleware.ExampleService proof_size ETV
vector 279 World.node[144].appl.middleware.ExampleService proof_requested ETV
vector 280 World.node[147].appl.middleware.ExampleService proof_size ETV
vector 281 World.node[147].appl.middleware.ExampleService proof_requested ETV
225	12877399	481.038911718875	40
225	15209003	541.038911718875	39
225	17359339	601.038911718875	20
224	12877399	481.038911718875	0
224	15209003	541.038911718875	19
224	17359339	601.038911718875	9
267	17056048	594.01419251014	27
266	17056048	594.01419251014	16
vector 282 World.node[142].appl.middleware.ExampleService proof_size ETV
vector 283 World.node[142].appl.middleware.ExampleService proof_requested ETV
185	9480293	413.063412036048	44
185	12489484	473.063412036048	44
185	14933438	533.063412036048	42
185	17020136	593.063412036048	38
184	9480293	413.063412036048	20
184	12489484	473.063412036048	25
184	14933438	533.063412036048	23
184	17020136	593.063412036048	16
187	9516674	414.007941278839	42
187	12536849	474.007941278839	44
187	14968981	534.007941278839	41
187	17055499	594.007941278839	33
186	9516674	414.007941278839	10
186	12536849	474.007941278839	26
186	14968981	534.007941278839	15
186	17055499	594.007941278839	15
191	9653109	417.009300388303	35
191	12682593	477.009300388303	42
191	15077066	537.009300388303	40
191	17176754	597.009300388303	20
190	9653109	417.009300388303	1
190	12682593	477.009300388303	24
190	15077066	537.009300388303	15
190	17176754	597.009300388303	11
189	9526073	414.094979094155	38
189	12551531	474.094979094155	39
189	14981507	534.094979094155	39
189	17066160	594.094979094155	35
188	9526073	414.094979094155	9
188	12551531	474.094979094155	1
188	14981507	534.094979094155	12
188	17066160	594.094979094155	2
203	10847373	442.025839007832	44
203	13753830	502.025839007832	38
203	15963948	562.025839007832	34
202	10847373	442.025839007832	11
202	13753830	502.025839007832	9
202	15963948	562.025839007832	7
vector 284 World.node[149].appl.middleware.ExampleService proof_size ETV
vector 285 World.node[149].appl.middleware.ExampleService proof_requested ETV
vector 286 World.node[146].appl.middleware.ExampleService proof_size ETV
vector 287 World.node[146].appl.middleware.ExampleService proof_requested ETV
vector 288 World.node[158].appl.middleware.ExampleService proof_size ETV
vector 289 World.node[158].appl.middleware.ExampleService proof_requested ETV
219	12282889	469.056707752659	44
219	14766125	529.056707752659	40
219	16852879	589.056707752659	36
218	12282889	469.056707752659	25
218	14766125	529.056707752659	14
218	16852879	589.056707752659	9
vector 290 World.node[145].appl.middleware.ExampleService proof_size ETV
vector 291 World.node[145].appl.middleware.ExampleService proof_requested ETV
263	16097966	566.053424828197	37
262	16097966	566.053424828197	11
vector 292 World.node[156].appl.middleware.ExampleService proof_size ETV
vector 293 World.node[156].appl.middleware.ExampleService proof_requested ETV
vector 294 World.node[152].appl.middleware.ExampleService proof_size ETV
vector 295 World.node[152].appl.middleware.ExampleService proof_requested ETV
243	14233810	514.059191371012	34
243	16374416	574.059191371012	37
242	14233810	514.059191371012	13
242	16374416	574.059191371012	12
vector 296 World.node[153].appl.middleware.ExampleService proof_size ETV
vector 297 World.node[153].appl.middleware.ExampleService proof_requested ETV
vector 298 World.node[155].appl.middleware.ExampleService proof_size ETV
vector 299 World.node[155].appl.middleware.ExampleService proof_requested ETV
157	7358628	363.096570974286	41
157	9928818	423.096570974286	37
157	12966298	483.096570974286	36
157	15274121	543.096570974286	38
157	17454850	603.096570974286	36
156	7358628	363.096570974286	9
156	9928818	423.096570974286	10
156	12966298	483.096570974286	20
156	15274121	543.096570974286	12
156	17454850	603.096570974286	8
253	15681035	554.067275097244	39
253	17857069	614.067275097244	37
252	15681035	554.067275097244	13
252	17857069	614.067275097244	9
vector 300 World.node[148].appl.middleware.ExampleService proof_size ETV
vector 301 World.node[148].appl.middleware.ExampleService proof_requested ETV
131	5422387	309.049395790766	35
131	7603733	369.049395790766	39
131	10221398	429.049395790766	45
131	13257517	489.049395790766	45
131	15491671	549.049395790766	31
131	17691881	609.049395790766	32
130	5422387	309.049395790766	13
130	7603733	369.049395790766	0
130	10221398	429.049395790766	1
130	13257517	489.049395790766	0
130	15491671	549.049395790766	13
130	17691881	609.049395790766	17
vector 302 World.node[160].appl.middleware.ExampleService proof_size ETV
vector 303 World.node[160].appl.middleware.ExampleService proof_requested ETV
vector 304 World.node[163].appl.middleware.ExampleService proof_size ETV
vector 305 World.node[163].appl.middleware.ExampleService proof_requested ETV
301	18428789	636.088961845706	35
300	18428789	636.088961845706	8
227	13169204	487.038596755639	41
227	15419709	547.038596755639	39
227	17620618	607.038596755639	36
226	13169204	487.038596755639	13
226	15419709	547.038596755639	14
226	17620618	607.038596755639	8
277	17539908	605.080999214691	35
276	17539908	605.080999214691	14
vector 306 World.node[165].appl.middleware.ExampleService proof_size ETV
vector 307 World.node[165].appl.middleware.ExampleService proof_requested ETV
vector 308 World.node[171].appl.middleware.ExampleService proof_size ETV
vector 309 World.node[171].appl.middleware.ExampleService proof_requested ETV
vector 310 World.node[168].appl.middleware.ExampleService proof_size ETV
vector 311 World.node[168].appl.middleware.ExampleService proof_requested ETV
vector 312 World.node[157].appl.middleware.ExampleService proof_size ETV
vector 313 World.node[157].appl.middleware.ExampleService proof_requested ETV
239	14083952	510.065302046249	32
239	16243402	570.065302046249	31
239	18266896	630.065302046249	35
238	14083952	510.065302046249	15
238	16243402	570.065302046249	12
238	18266896	630.065302046249	5
273	17391233	602.003974616923	38
273	19190175	662.003974616923	35
272	17391233	602.003974616923	5
272	19190175	662.003974616923	4
vector 314 World.node[159].appl.middleware.ExampleService proof_size ETV
vector 315 World.node[159].appl.middleware.ExampleService proof_requested ETV
vector 316 World.node[169].appl.middleware.ExampleService proof_size ETV
vector 317 World.node[169].appl.middleware.ExampleService proof_requested ETV
vector 318 World.node[162].appl.middleware.ExampleService proof_size ETV
vector 319 World.node[162].appl.middleware.ExampleService proof_requested ETV
vector 320 World.node[172].appl.middleware.ExampleService proof_size ETV
vector 321 World.node[172].appl.middleware.ExampleService proof_requested ETV
vector 322 World.node[166].appl.middleware.ExampleService proof_size ETV
vector 323 World.node[166].appl.middleware.ExampleService proof_requested ETV
233	13597459	498.078025191138	39
233	15821888	558.078025191138	38
233	17979452	618.078025191138	32
233	19781332	678.078025191138	30
232	13597459	498.078025191138	15
232	15821888	558.078025191138	7
232	17979452	618.078025191138	12
232	19781332	678.078025191138	14
vector 324 World.node[164].appl.middleware.ExampleService proof_size ETV
vector 325 World.node[164].appl.middleware.ExampleService proof_requested ETV
vector 326 World.node[170].appl.middleware.ExampleService proof_size ETV
vector 327 World.node[170].appl.middleware.ExampleService proof_requested ETV
231	13483320	495.041495671147	37
231	15719675	555.041495671147	38
231	17881714	615.041495671147	34
231	19651554	675.041495671147	36
230	13483320	495.041495671147	17
230	15719675	555.041495671147	17
230	17881714	615.041495671147	10
230	19651554	675.041495671147	13
259	15998946	563.058237668197	35
259	18099353	623.058237668197	34
259	19978226	683.058237668197	33
258	15998946	563.058237668197	11
258	18099353	623.058237668197	8
258	19978226	683.058237668197	18
295	18192465	627.096452377993	35
295	20166114	687.096452377993	27
294	18192465	627.096452377993	8
294	20166114	687.096452377993	7
vector 328 World.node[167].appl.middleware.ExampleService proof_size ETV
vector 329 World.node[167].appl.middleware.ExampleService proof_requested ETV
241	14123036	511.092779087368	35
241	16280874	571.092779087368	38
241	18296871	631.092779087368	34
241	20369697	691.092779087368	42
240	14123036	511.092779087368	8
240	16280874	571.092779087368	7
240	18296871	631.092779087368	7
240	20369697	691.092779087368	22
281	17582668	606.096605213312	26
281	19336730	666.096605213312	37
280	17582668	606.096605213312	11
280	19336730	666.096605213312	0
293	18145821	625.034693871741	30
293	20069613	685.034693871741	36
292	18145821	625.034693871741	8
292	20069613	685.034693871741	29
vector 330 World.node[177].appl.middleware.ExampleService proof_size ETV
vector 331 World.node[177].appl.middleware.ExampleService proof_requested ETV
vector 332 World.node[173].appl.middleware.ExampleService proof_size ETV
vector 333 World.node[173].appl.middleware.ExampleService proof_requested ETV
315	19611272	674.013975182059	34
314	19611272	674.013975182059	0
297	18295825	631.081237687659	35
297	20368171	691.081237687659	41
296	18295825	631.081237687659	16
296	20368171	691.081237687659	11
265	16239495	570.022188255936	28
265	18265856	630.022188255936	30
265	20312830	690.022188255936	42
264	16239495	570.022188255936	23
264	18265856	630.022188255936	17
264	20312830	690.022188255936	22
207	11169475	449.027767476137	43
207	14034960	509.027767476137	37
207	16206587	569.027767476137	37
207	18245605	629.027767476137	35
207	20259916	689.027767476137	41
206	11169475	449.027767476137	8
206	14034960	509.027767476137	9
206	16206587	569.027767476137	0
206	18245605	629.027767476137	10
206	20259916	689.027767476137	17
vector 334 World.node[182].appl.middleware.ExampleService proof_size ETV
vector 335 World.node[182].appl.middleware.ExampleService proof_requested ETV
vector 336 World.node[179].appl.middleware.ExampleService proof_size ETV
vector 337 World.node[179].appl.middleware.ExampleService proof_requested ETV
251	15648980	553.08504881917	21
251	17832628	613.08504881917	39
251	19590702	673.08504881917	36
250	15648980	553.08504881917	6
250	17832628	613.08504881917	18
250	19590702	673.08504881917	10
vector 338 World.node[178].appl.middleware.ExampleService proof_size ETV
vector 339 World.node[178].appl.middleware.ExampleService proof_requested ETV
vector 340 World.node[175].appl.middleware.ExampleService proof_size ETV
vector 341 World.node[175].appl.middleware.ExampleService proof_requested ETV
vector 342 World.node[180].appl.middleware.ExampleService proof_size ETV
vector 343 World.node[180].appl.middleware.ExampleService proof_requested ETV
283	17623417	607.060819438403	39
283	19366227	667.060819438403	33
282	17623417	607.060819438403	1
282	19366227	667.060819438403	18
vector 344 World.node[184].appl.middleware.ExampleService proof_size ETV
vector 345 World.node[184].appl.middleware.ExampleService proof_requested ETV
311	19507299	671.022585434536	33
310	19507299	671.022585434536	7
vector 346 World.node[174].appl.middleware.ExampleService proof_size ETV
vector 347 World.node[174].appl.middleware.ExampleService proof_requested ETV
271	17140852	596.047528930428	26
271	19005646	656.047528930428	34
271	21217500	716.047528930428	35
270	17140852	596.047528930428	7
270	19005646	656.047528930428	15
270	21217500	716.047528930428	3
275	17445409	603.025317821954	37
275	19223618	663.025317821954	38
275	21428868	723.025317821954	18
274	17445409	603.025317821954	13
274	19223618	663.025317821954	15
274	21428868	723.025317821954	3
vector 348 World.node[176].appl.middleware.ExampleService proof_size ETV
vector 349 World.node[176].appl.middleware.ExampleService proof_requested ETV
vector 350 World.node[181].appl.middleware.ExampleService proof_size ETV
vector 351 World.node[181].appl.middleware.ExampleService proof_requested ETV
287	18003572	619.08315650695	33
287	19818322	679.08315650695	38
287	22135351	739.08315650695	18
286	18003572	619.08315650695	12
286	19818322	679.08315650695	6
286	22135351	739.08315650695	5
vector 352 World.node[189].appl.middleware.ExampleService proof_size ETV
vector 353 World.node[189].appl.middleware.ExampleService proof_requested ETV
vector 354 World.node[188].appl.middleware.ExampleService proof_size ETV
vector 355 World.node[188].appl.middleware.ExampleService proof_requested ETV
vector 356 World.node[190].appl.middleware.ExampleService proof_size ETV
vector 357 World.node[190].appl.middleware.ExampleService proof_requested ETV
vector 358 World.node[187].appl.middleware.ExampleService proof_size ETV
vector 359 World.node[187].appl.middleware.ExampleService proof_requested ETV
217	11965188	463.084800061956	47
217	14569464	523.084800061956	37
217	16662716	583.084800061956	38
217	18622253	643.084800061956	36
217	20832514	703.084800061956	39
216	11965188	463.084800061956	24
216	14569464	523.084800061956	17
216	16662716	583.084800061956	14
216	18622253	643.084800061956	15
216	20832514	703.084800061956	15
vector 360 World.node[186].appl.middleware.ExampleService proof_size ETV
vector 361 World.node[186].appl.middleware.ExampleService proof_requested ETV
317	19651556	675.046154643921	36
317	21942797	735.046154643921	37
316	19651556	675.046154643921	0
316	21942797	735.046154643921	27
vector 362 World.node[193].appl.middleware.ExampleService proof_size ETV
vector 363 World.node[193].appl.middleware.ExampleService proof_requested ETV
vector 364 World.node[183].appl.middleware.ExampleService proof_size ETV
vector 365 World.node[183].appl.middleware.ExampleService proof_requested ETV
313	19539176	672.00115477629	38
313	21797185	732.00115477629	38
312	19539176	672.00115477629	12
312	21797185	732.00115477629	7
vector 366 World.node[185].appl.middleware.ExampleService proof_size ETV
vector 367 World.node[185].appl.middleware.ExampleService proof_requested ETV
vector 368 World.node[194].appl.middleware.ExampleService proof_size ETV
vector 369 World.node[194].appl.middleware.ExampleService proof_requested ETV
255	15724353	555.088345468417	35
255	17887929	615.088345468417	29
255	19655397	675.088345468417	37
255	21947647	735.088345468417	38
254	15724353	555.088345468417	14
254	17887929	615.088345468417	5
254	19655397	675.088345468417	15
254	21947647	735.088345468417	21
325	20400867	692.036836434528	40
325	22674717	752.036836434528	41
324	20400867	692.036836434528	19
324	22674717	752.036836434528	29
vector 370 World.node[195].appl.middleware.ExampleService proof_size ETV
vector 371 World.node[195].appl.middleware.ExampleService proof_requested ETV
269	17107879	595.087041321257	36
269	18984171	655.087041321257	35
269	21199254	715.087041321257	35
269	23582516	775.087041321257	39
268	17107879	595.087041321257	18
268	18984171	655.087041321257	16
268	21199254	715.087041321257	10
268	23582516	775.087041321257	18
333	20792105	702.037607459584	39
333	23064962	762.037607459584	31
332	20792105	702.037607459584	20
332	23064962	762.037607459584	11
357	22633401	751.043676190847	40
356	22633401	751.043676190847	16
vector 372 World.node[191].appl.middleware.ExampleService proof_size ETV
vector 373 World.node[191].appl.middleware.ExampleService proof_requested ETV
331	20789946	702.016435491666	37
331	23063227	762.016435491666	40
330	20789946	702.016435491666	19
330	23063227	762.016435491666	19
289	18005462	619.104231100576	15
289	19811574	679.004231100576	23
289	22127534	739.004231100576	40
288	18005462	619.104231100576	0
288	19811574	679.004231100576	4
288	22127534	739.004231100576	9
vector 374 World.node[196].appl.middleware.ExampleService proof_size ETV
vector 375 World.node[196].appl.middleware.ExampleService proof_requested ETV
vector 376 World.node[197].appl.middleware.ExampleService proof_size ETV
vector 377 World.node[197].appl.middleware.ExampleService proof_requested ETV
vector 378 World.node[192].appl.middleware.ExampleService proof_size ETV
vector 379 World.node[192].appl.middleware.ExampleService proof_requested ETV
279	17574532	606.023906711349	40
279	19330646	666.023906711349	37
279	21564088	726.023906711349	38
279	24042401	786.023906711349	42
278	17574532	606.023906711349	15
278	19330646	666.023906711349	18
278	21564088	726.023906711349	26
278	24042401	786.023906711349	27
319	19817195	679.068623744068	35
319	22133901	739.068623744068	39
319	24515253	799.068623744068	41
318	19817195	679.068623744068	16
318	22133901	739.068623744068	6
318	24515253	799.068623744068	19
369	23534077	774.09690370115	35
368	23534077	774.09690370115	14
vector 380 World.node[207].appl.middleware.ExampleService proof_size ETV
vector 381 World.node[207].appl.middleware.ExampleService proof_requested ETV
vector 382 World.node[199].appl.middleware.ExampleService proof_size ETV
vector 383 World.node[199].appl.middleware.ExampleService proof_requested ETV
vector 384 World.node[198].appl.middleware.ExampleService proof_size ETV
vector 385 World.node[198].appl.middleware.ExampleService proof_requested ETV
309	19393405	668.052207997837	16
309	21638996	728.052207997837	28
309	24124947	788.052207997837	39
308	19393405	668.052207997837	5
308	21638996	728.052207997837	16
308	24124947	788.052207997837	17
329	20626884	698.009318031603	40
329	22915297	758.009318031603	41
328	20626884	698.009318031603	10
328	22915297	758.009318031603	20
vector 386 World.node[208].appl.middleware.ExampleService proof_size ETV
vector 387 World.node[208].appl.middleware.ExampleService proof_requested ETV
vector 388 World.node[206].appl.middleware.ExampleService proof_size ETV
vector 389 World.node[206].appl.middleware.ExampleService proof_requested ETV
257	15786364	557.029712137301	36
257	17940341	617.029712137301	35
257	19734493	677.029712137301	40
257	22031315	737.029712137301	40
257	24428464	797.029712137301	38
256	15786364	557.029712137301	11
256	17940341	617.029712137301	7
256	19734493	677.029712137301	9
256	22031315	737.029712137301	14
256	24428464	797.029712137301	7
vector 390 World.node[204].appl.middleware.ExampleService proof_size ETV
vector 391 World.node[204].appl.middleware.ExampleService proof_requested ETV
vector 392 World.node[201].appl.middleware.ExampleService proof_size ETV
vector 393 World.node[201].appl.middleware.ExampleService proof_requested ETV
341	21334678	720.025533080543	28
341	23786052	780.025533080543	43
340	21334678	720.025533080543	7
340	23786052	780.025533080543	15
vector 394 World.node[205].appl.middleware.ExampleService proof_size ETV
vector 395 World.node[205].appl.middleware.ExampleService proof_requested ETV
347	21802589	732.0474661591	36
347	24261302	792.0474661591	40
346	21802589	732.0474661591	8
346	24261302	792.0474661591	13
vector 396 World.node[209].appl.middleware.ExampleService proof_size ETV
vector 397 World.node[209].appl.middleware.ExampleService proof_requested ETV
327	20405755	692.089368594019	32
327	22680705	752.089368594019	41
327	24995048	812.089368594019	40
326	20405755	692.089368594019	4
326	22680705	752.089368594019	22
326	24995048	812.089368594019	13
vector 398 World.node[202].appl.middleware.ExampleService proof_size ETV
vector 399 World.node[202].appl.middleware.ExampleService proof_requested ETV
377	24292574	793.029809735483	39
376	24292574	793.029809735483	4
vector 400 World.node[214].appl.middleware.ExampleService proof_size ETV
vector 401 World.node[214].appl.middleware.ExampleService proof_requested ETV
vector 402 World.node[211].appl.middleware.ExampleService proof_size ETV
vector 403 World.node[211].appl.middleware.ExampleService proof_requested ETV
vector 404 World.node[213].appl.middleware.ExampleService proof_size ETV
vector 405 World.node[213].appl.middleware.ExampleService proof_requested ETV
vector 406 World.node[203].appl.middleware.ExampleService proof_size ETV
vector 407 World.node[203].appl.middleware.ExampleService proof_requested ETV
vector 408 World.node[210].appl.middleware.ExampleService proof_size ETV
vector 409 World.node[210].appl.middleware.ExampleService proof_requested ETV
337	21110338	712.080686129909	28
337	23439119	772.080686129909	38
337	25872981	832.080686129909	27
336	21110338	712.080686129909	0
336	23439119	772.080686129909	0
336	25872981	832.080686129909	0
385	25079884	814.092398233595	39
384	25079884	814.092398233595	4
vector 410 World.node[217].appl.middleware.ExampleService proof_size ETV
vector 411 World.node[217].appl.middleware.ExampleService proof_requested ETV
351	22444534	747.031109329173	37
351	24802006	807.031109329173	43
350	22444534	747.031109329173	12
350	24802006	807.031109329173	11
353	22485777	748.038128867326	31
353	24840793	808.038128867326	35
352	22485777	748.038128867326	11
352	24840793	808.038128867326	14
321	20065494	685.000295821601	36
321	22357307	745.000295821601	39
321	24719855	805.000295821601	40
320	20065494	685.000295821601	19
320	22357307	745.000295821601	3
320	24719855	805.000295821601	4
335	21106139	712.004038696596	33
335	23430801	772.004038696596	32
335	25857676	832.004038696596	43
334	21106139	712.004038696596	12
334	23430801	772.004038696596	11
334	25857676	832.004038696596	17
391	25587652	825.01965625002	39
390	25587652	825.01965625002	20
291	18023930	620.047138680099	35
291	19845335	680.047138680099	34
291	22164177	740.047138680099	41
291	24540288	800.047138680099	39
291	27054443	860.047138680099	43
290	18023930	620.047138680099	10
290	19845335	680.047138680099	14
290	22164177	740.047138680099	22
290	24540288	800.047138680099	9
290	27054443	860.047138680099	15
vector 412 World.node[223].appl.middleware.ExampleService proof_size ETV
vector 413 World.node[223].appl.middleware.ExampleService proof_requested ETV
vector 414 World.node[222].appl.middleware.ExampleService proof_size ETV
vector 415 World.node[222].appl.middleware.ExampleService proof_requested ETV
vector 416 World.node[212].appl.middleware.ExampleService proof_size ETV
vector 417 World.node[212].appl.middleware.ExampleService proof_requested ETV
vector 418 World.node[218].appl.middleware.ExampleService proof_size ETV
vector 419 World.node[218].appl.middleware.ExampleService proof_requested ETV
299	18342100	633.066953277355	35
299	20444813	693.066953277355	43
299	22717312	753.066953277355	37
299	25033561	813.066953277355	43
299	27647957	873.066953277355	41
298	18342100	633.066953277355	9
298	20444813	693.066953277355	16
298	22717312	753.066953277355	18
298	25033561	813.066953277355	14
298	27647957	873.066953277355	16
323	20159678	687.079895281675	38
323	22448925	747.079895281675	40
323	24806350	807.079895281675	43
323	27383699	867.079895281675	45
322	20159678	687.079895281675	23
322	22448925	747.079895281675	15
322	24806350	807.079895281675	9
322	27383699	867.079895281675	20
383	24953060	811.061304394621	43
383	27553442	871.061304394621	41
382	24953060	811.061304394621	6
382	27553442	871.061304394621	11
vector 420 World.node[229].appl.middleware.ExampleService proof_size ETV
vector 421 World.node[229].appl.middleware.ExampleService proof_requested ETV
415	27652228	873.095851381752	42
414	27652228	873.095851381752	0
343	21390920	722.009602098609	20
343	23857061	782.009602098609	41
343	26284325	842.009602098609	39
342	21390920	722.009602098609	7
342	23857061	782.009602098609	22
342	26284325	842.009602098609	10
vector 422 World.node[227].appl.middleware.ExampleService proof_size ETV
vector 423 World.node[227].appl.middleware.ExampleService proof_requested ETV
vector 424 World.node[215].appl.middleware.ExampleService proof_size ETV
vector 425 World.node[215].appl.middleware.ExampleService proof_requested ETV
vector 426 World.node[224].appl.middleware.ExampleService proof_size ETV
vector 427 World.node[224].appl.middleware.ExampleService proof_requested ETV
367	23282223	768.058182832203	42
367	25717589	828.058182832203	43
367	28380635	888.058182832203	39
366	23282223	768.058182832203	15
366	25717589	828.058182832203	20
366	28380635	888.058182832203	23
371	23659710	777.062032693578	41
371	26080833	837.062032693578	43
371	28735007	897.062032693578	38
370	23659710	777.062032693578	18
370	26080833	837.062032693578	15
370	28735007	897.062032693578	11
379	24611269	802.021886170073	38
379	27142832	862.021886170073	36
378	24611269	802.021886170073	5
378	27142832	862.021886170073	14
307	19170118	661.063461416704	24
307	21369632	721.063461416704	29
307	23830729	781.063461416704	23
307	26257539	841.063461416704	38
307	28864380	901.063461416704	16
306	19170118	661.063461416704	7
306	21369632	721.063461416704	11
306	23830729	781.063461416704	7
306	26257539	841.063461416704	17
306	28864380	901.063461416704	4
vector 428 World.node[232].appl.middleware.ExampleService proof_size ETV
vector 429 World.node[232].appl.middleware.ExampleService proof_requested ETV
vector 430 World.node[226].appl.middleware.ExampleService proof_size ETV
vector 431 World.node[226].appl.middleware.ExampleService proof_requested ETV
vector 432 World.node[220].appl.middleware.ExampleService proof_size ETV
vector 433 World.node[220].appl.middleware.ExampleService proof_requested ETV
303	18705565	646.000975737721	24
303	20924769	706.000975737721	34
303	23215271	766.000975737721	41
303	25633637	826.000975737721	41
303	28284633	886.000975737721	37
302	18705565	646.000975737721	5
302	20924769	706.000975737721	4
302	23215271	766.000975737721	15
302	25633637	826.000975737721	8
302	28284633	886.000975737721	13
vector 434 World.node[236].appl.middleware.ExampleService proof_size ETV
vector 435 World.node[236].appl.middleware.ExampleService proof_requested ETV
355	22531162	749.087219930277	40
355	24880430	809.087219930277	42
355	27468665	869.087219930277	42
354	22531162	749.087219930277	19
354	24880430	809.087219930277	13
354	27468665	869.087219930277	21
373	24086252	787.054373264336	38
373	26528557	847.054373264336	42
373	29103006	907.054373264336	24
372	24086252	787.054373264336	19
372	26528557	847.054373264336	13
372	29103006	907.054373264336	10
417	27690240	874.045352052734	38
416	27690240	874.045352052734	28
vector 436 World.node[221].appl.middleware.ExampleService proof_size ETV
vector 437 World.node[221].appl.middleware.ExampleService proof_requested ETV
vector 438 World.node[237].appl.middleware.ExampleService proof_size ETV
vector 439 World.node[237].appl.middleware.ExampleService proof_requested ETV
305	18734301	647.063155819545	37
305	20956295	707.063155819545	37
305	23250910	767.063155819545	39
305	25680588	827.063155819545	44
305	28334464	887.063155819545	42
304	18734301	647.063155819545	14
304	20956295	707.063155819545	15
304	23250910	767.063155819545	17
304	25680588	827.063155819545	12
304	28334464	887.063155819545	16
vector 440 World.node[234].appl.middleware.ExampleService proof_size ETV
vector 441 World.node[234].appl.middleware.ExampleService proof_requested ETV
vector 442 World.node[230].appl.middleware.ExampleService proof_size ETV
vector 443 World.node[230].appl.middleware.ExampleService proof_requested ETV
vector 444 World.node[228].appl.middleware.ExampleService proof_size ETV
vector 445 World.node[228].appl.middleware.ExampleService proof_requested ETV
359	22758445	754.073738071462	41
359	25077021	814.073738071462	41
359	27699157	874.073738071462	37
359	30035690	934.073738071462	35
358	22758445	754.073738071462	19
358	25077021	814.073738071462	15
358	27699157	874.073738071462	14
358	30035690	934.073738071462	7
395	25759485	829.069295036863	34
395	28425349	889.069295036863	40
394	25759485	829.069295036863	15
394	28425349	889.069295036863	18
401	26293765	842.068068349478	39
401	28894684	902.068068349478	36
400	26293765	842.068068349478	2
400	28894684	902.068068349478	13
vector 446 World.node[240].appl.middleware.ExampleService proof_size ETV
vector 447 World.node[240].appl.middleware.ExampleService proof_requested ETV
365	23008799	760.079586539976	40
365	25364522	820.079586539976	41
365	28011061	880.079586539976	44
365	30261165	940.079586539976	36
364	23008799	760.079586539976	0
364	25364522	820.079586539976	2
364	28011061	880.079586539976	28
364	30261165	940.079586539976	4
vector 448 World.node[231].appl.middleware.ExampleService proof_size ETV
vector 449 World.node[231].appl.middleware.ExampleService proof_requested ETV
345	21563245	726.013988597924	19
345	24041497	786.013988597924	40
345	26481477	846.013988597924	41
345	29063609	906.013988597924	36
344	21563245	726.013988597924	11
344	24041497	786.013988597924	23
344	26481477	846.013988597924	28
344	29063609	906.013988597924	25
285	17828176	613.0022787411	26
285	19584531	673.0022787411	37
285	21854465	733.0022787411	36
285	24291310	793.0022787411	37
285	26766816	853.0022787411	42
285	29338059	913.0022787411	28
284	17828176	613.0022787411	3
284	19584531	673.0022787411	5
284	21854465	733.0022787411	8
284	24291310	793.0022787411	5
284	26766816	853.0022787411	9
284	29338059	913.0022787411	5
399	26083557	837.082017836301	38
399	28737021	897.082017836301	40
398	26083557	837.082017836301	12
398	28737021	897.082017836301	1
vector 450 World.node[235].appl.middleware.ExampleService proof_size ETV
vector 451 World.node[235].appl.middleware.ExampleService proof_requested ETV
vector 452 World.node[239].appl.middleware.ExampleService proof_size ETV
vector 453 World.node[239].appl.middleware.ExampleService proof_requested ETV
431	29140587	908.003603776707	36
430	29140587	908.003603776707	15
423	28667541	895.07841496896	42
423	30819542	955.07841496896	23
422	28667541	895.07841496896	12
422	30819542	955.07841496896	9
vector 454 World.node[244].appl.middleware.ExampleService proof_size ETV
vector 455 World.node[244].appl.middleware.ExampleService proof_requested ETV
361	22951859	759.005841020262	42
361	25317030	819.005841020262	38
361	27953251	879.005841020262	43
361	30224345	939.005841020262	38
360	22951859	759.005841020262	10
360	25317030	819.005841020262	10
360	27953251	879.005841020262	22
360	30224345	939.005841020262	10
vector 456 World.node[241].appl.middleware.ExampleService proof_size ETV
vector 457 World.node[241].appl.middleware.ExampleService proof_requested ETV
403	26343133	843.019751145435	43
403	28933505	903.019751145435	40
403	31109174	963.019751145435	37
402	26343133	843.019751145435	20
402	28933505	903.019751145435	1
402	31109174	963.019751145435	17
vector 458 World.node[248].appl.middleware.ExampleService proof_size ETV
vector 459 World.node[248].appl.middleware.ExampleService proof_requested ETV
vector 460 World.node[242].appl.middleware.ExampleService proof_size ETV
vector 461 World.node[242].appl.middleware.ExampleService proof_requested ETV
vector 462 World.node[243].appl.middleware.ExampleService proof_size ETV
vector 463 World.node[243].appl.middleware.ExampleService proof_requested ETV
407	26446855	845.083798135654	41
407	29030920	905.083798135654	41
407	31187055	965.083798135654	39
406	26446855	845.083798135654	9
406	29030920	905.083798135654	0
406	31187055	965.083798135654	0
vector 464 World.node[238].appl.middleware.ExampleService proof_size ETV
vector 465 World.node[238].appl.middleware.ExampleService proof_requested ETV
397	26005705	835.01188515909	43
397	28662672	895.01188515909	39
397	30814478	955.01188515909	38
396	26005705	835.01188515909	12
396	28662672	895.01188515909	8
396	30814478	955.01188515909	9
vector 466 World.node[245].appl.middleware.ExampleService proof_size ETV
vector 467 World.node[245].appl.middleware.ExampleService proof_requested ETV
465	31552784	975.098059544503	38
464	31552784	975.098059544503	0
vector 468 World.node[250].appl.middleware.ExampleService proof_size ETV
vector 469 World.node[250].appl.middleware.ExampleService proof_requested ETV
419	28011391	880.081035467656	41
419	30261457	940.081035467656	28
418	28011391	880.081035467656	0
418	30261457	940.081035467656	0
457	31409894	971.075325925206	30
456	31409894	971.075325925206	10
vector 470 World.node[246].appl.middleware.ExampleService proof_size ETV
vector 471 World.node[246].appl.middleware.ExampleService proof_requested ETV
375	24202655	790.042296765139	40
375	26651180	850.042296765139	41
375	29219522	910.042296765139	39
375	31370161	970.042296765139	37
374	24202655	790.042296765139	16
374	26651180	850.042296765139	12
374	29219522	910.042296765139	20
374	31370161	970.042296765139	13
339	21215575	716.014430886623	35
339	23612265	776.014430886623	44
339	26037812	836.014430886623	44
339	28692276	896.014430886623	36
339	30845601	956.014430886623	29
338	21215575	716.014430886623	7
338	23612265	776.014430886623	7
338	26037812	836.014430886623	13
338	28692276	896.014430886623	11
338	30845601	956.014430886623	13
393	25639932	826.060740037356	40
393	28290454	886.060740037356	45
393	30458450	946.060740037356	40
392	25639932	826.060740037356	11
392	28290454	886.060740037356	16
392	30458450	946.060740037356	13
387	25224145	817.009280729084	43
387	27845327	877.009280729084	42
387	30145486	937.009280729084	33
386	25224145	817.009280729084	25
386	27845327	877.009280729084	19
386	30145486	937.009280729084	9
vector 472 World.node[249].appl.middleware.ExampleService proof_size ETV
vector 473 World.node[249].appl.middleware.ExampleService proof_requested ETV
411	26839948	855.076615586784	38
411	29421870	915.076615586784	38
411	31551435	975.076615586784	40
410	26839948	855.076615586784	11
410	29421870	915.076615586784	14
410	31551435	975.076615586784	16
449	30727608	953.040334576345	35
448	30727608	953.040334576345	12
433	29146837	908.077475113864	40
433	31302675	968.077475113864	36
432	29146837	908.077475113864	0
432	31302675	968.077475113864	12
vector 474 World.node[257].appl.middleware.ExampleService proof_size ETV
vector 475 World.node[257].appl.middleware.ExampleService proof_requested ETV
vector 476 World.node[255].appl.middleware.ExampleService proof_size ETV
vector 477 World.node[255].appl.middleware.ExampleService proof_requested ETV
vector 478 World.node[258].appl.middleware.ExampleService proof_size ETV
vector 479 World.node[258].appl.middleware.ExampleService proof_requested ETV
443	30109502	936.020274263248	35
443	32118766	996.020274263248	34
442	30109502	936.020274263248	10
442	32118766	996.020274263248	13
vector 480 World.node[256].appl.middleware.ExampleService proof_size ETV
vector 481 World.node[256].appl.middleware.ExampleService proof_requested ETV
vector 482 World.node[251].appl.middleware.ExampleService proof_size ETV
vector 483 World.node[251].appl.middleware.ExampleService proof_requested ETV
vector 484 World.node[253].appl.middleware.ExampleService proof_size ETV
vector 485 World.node[253].appl.middleware.ExampleService proof_requested ETV
425	28701291	896.078878310183	36
425	30854912	956.078878310183	36
425	32703263	1016.078878310183	23
424	28701291	896.078878310183	3
424	30854912	956.078878310183	1
424	32703263	1016.078878310183	9
vector 486 World.node[254].appl.middleware.ExampleService proof_size ETV
vector 487 World.node[254].appl.middleware.ExampleService proof_requested ETV
vector 488 World.node[247].appl.middleware.ExampleService proof_size ETV
vector 489 World.node[247].appl.middleware.ExampleService proof_requested ETV
389	25278071	818.053173642675	41
389	27906668	878.053173642675	39
389	30194565	938.053173642675	42
389	32180294	998.053173642675	32
388	25278071	818.053173642675	25
388	27906668	878.053173642675	22
388	30194565	938.053173642675	12
388	32180294	998.053173642675	13
435	29496127	917.085808246583	36
435	31612185	977.085808246583	34
434	29496127	917.085808246583	20
434	31612185	977.085808246583	4
405	26441565	845.030340869818	43
405	29022743	905.030340869818	41
405	31183254	965.030340869818	37
405	32968641	1025.030340869818	15
404	26441565	845.030340869818	11
404	29022743	905.030340869818	13
404	31183254	965.030340869818	15
404	32968641	1025.030340869818	8
vector 490 World.node[262].appl.middleware.ExampleService proof_size ETV
vector 491 World.node[262].appl.middleware.ExampleService proof_requested ETV
vector 492 World.node[259].appl.middleware.ExampleService proof_size ETV
vector 493 World.node[259].appl.middleware.ExampleService proof_requested ETV
363	23005040	760.026404914516	32
363	25359187	820.026404914516	41
363	28004580	880.026404914516	44
363	30258202	940.026404914516	36
363	32234129	1000.026404914516	29
362	23005040	760.026404914516	11
362	25359187	820.026404914516	13
362	28004580	880.026404914516	17
362	30258202	940.026404914516	14
362	32234129	1000.026404914516	14
vector 494 World.node[265].appl.middleware.ExampleService proof_size ETV
vector 495 World.node[265].appl.middleware.ExampleService proof_requested ETV
vector 496 World.node[261].appl.middleware.ExampleService proof_size ETV
vector 497 World.node[261].appl.middleware.ExampleService proof_requested ETV
381	24949030	811.011497502122	44
381	27550407	871.011497502122	40
381	29926088	931.011497502122	35
381	31960199	991.011497502122	33
380	24949030	811.011497502122	6
380	27550407	871.011497502122	13
380	29926088	931.011497502122	9
380	31960199	991.011497502122	10
vector 498 World.node[252].appl.middleware.ExampleService proof_size ETV
vector 499 World.node[252].appl.middleware.ExampleService proof_requested ETV
vector 500 World.node[267].appl.middleware.ExampleService proof_size ETV
vector 501 World.node[267].appl.middleware.ExampleService proof_requested ETV
vector 502 World.node[268].appl.middleware.ExampleService proof_size ETV
vector 503 World.node[268].appl.middleware.ExampleService proof_requested ETV
409	26483368	846.042821019422	41
409	29066103	906.042821019422	37
409	31225401	966.042821019422	33
409	32994516	1026.042821019422	21
408	26483368	846.042821019422	16
408	29066103	906.042821019422	13
408	31225401	966.042821019422	16
408	32994516	1026.042821019422	8
459	31481642	973.001840289892	9
459	33171547	1033.001840289892	33
458	31481642	973.001840289892	6
458	33171547	1033.001840289892	10
vector 504 World.node[263].appl.middleware.ExampleService proof_size ETV
vector 505 World.node[263].appl.middleware.ExampleService proof_requested ETV
349	22203525	741.060283960635	35
349	24573629	801.060283960635	41
349	27099581	861.060283960635	44
349	29626288	921.060283960635	38
349	31735250	981.060283960635	31
349	33404318	1041.060283960635	20
348	22203525	741.060283960635	20
348	24573629	801.060283960635	12
348	27099581	861.060283960635	17
348	29626288	921.060283960635	12
348	31735250	981.060283960635	9
348	33404318	1041.060283960635	3
445	30146083	937.015122086508	27
445	32146384	997.015122086508	31
445	33975021	1057.015122086508	30
444	30146083	937.015122086508	4
444	32146384	997.015122086508	15
444	33975021	1057.015122086508	13
499	33643852	1047.085716592078	33
498	33643852	1047.085716592078	17
439	29594465	920.025316153606	39
439	31704931	980.025316153606	38
439	33369839	1040.025316153606	37
438	29594465	920.025316153606	1
438	31704931	980.025316153606	9
438	33369839	1040.025316153606	3
469	31733150	981.023599877418	34
469	33401438	1041.023599877418	37
468	31733150	981.023599877418	16
468	33401438	1041.023599877418	17
vector 506 World.node[264].appl.middleware.ExampleService proof_size ETV
vector 507 World.node[264].appl.middleware.ExampleService proof_requested ETV
vector 508 World.node[269].appl.middleware.ExampleService proof_size ETV
vector 509 World.node[269].appl.middleware.ExampleService proof_requested ETV
461	31510659	974.021092531527	35
461	33192347	1034.021092531527	19
460	31510659	974.021092531527	12
460	33192347	1034.021092531527	7
vector 510 World.node[260].appl.middleware.ExampleService proof_size ETV
vector 511 World.node[260].appl.middleware.ExampleService proof_requested ETV
505	34035875	1059.057457322814	36
504	34035875	1059.057457322814	12
vector 512 World.node[270].appl.middleware.ExampleService proof_size ETV
vector 513 World.node[270].appl.middleware.ExampleService proof_requested ETV
vector 514 World.node[271].appl.middleware.ExampleService proof_size ETV
vector 515 World.node[271].appl.middleware.ExampleService proof_requested ETV
vector 516 World.node[266].appl.middleware.ExampleService proof_size ETV
vector 517 World.node[266].appl.middleware.ExampleService proof_requested ETV
453	31058163	962.000688959728	28
453	32879172	1022.000688959728	34
453	34624792	1082.000688959728	29
452	31058163	962.000688959728	11
452	32879172	1022.000688959728	4
452	34624792	1082.000688959728	7
479	32738914	1017.030111322505	20
479	34500307	1077.030111322505	32
478	32738914	1017.030111322505	10
478	34500307	1077.030111322505	9
447	30685709	952.044855683157	25
447	32577515	1012.044855683157	35
447	34376900	1072.044855683157	34
446	30685709	952.044855683157	9
446	32577515	1012.044855683157	13
446	34376900	1072.044855683157	6
vector 518 World.node[272].appl.middleware.ExampleService proof_size ETV
vector 519 World.node[272].appl.middleware.ExampleService proof_requested ETV
421	28452146	890.03903295889	17
421	30602102	950.03903295889	29
421	32515989	1010.03903295889	33
421	34325157	1070.03903295889	34
420	28452146	890.03903295889	4
420	30602102	950.03903295889	12
420	32515989	1010.03903295889	12
420	34325157	1070.03903295889	6
477	32637419	1014.066589554539	33
477	34421166	1074.066589554539	31
476	32637419	1014.066589554539	13
476	34421166	1074.066589554539	12
441	29719131	924.086066224426	38
441	31810994	984.086066224426	36
441	33524998	1044.086066224426	34
440	29719131	924.086066224426	19
440	31810994	984.086066224426	13
440	33524998	1044.086066224426	14
473	32091874	995.082358990144	26
473	33905676	1055.082358990144	34
472	32091874	995.082358990144	6
[...]
vector 1785 World.node[919].appl.middleware.ExampleService proof_requested ETV
vector 1786 World.node[930].appl.middleware.ExampleService proof_size ETV
vector 1787 World.node[930].appl.middleware.ExampleService proof_requested ETV
vector 1788 World.node[931].appl.middleware.ExampleService proof_size ETV
vector 1789 World.node[931].appl.middleware.ExampleService proof_requested ETV
1749	144131461	3478.096965340036	53
1749	147263466	3538.096965340036	46
1748	144131461	3478.096965340036	4
1748	147263466	3538.096965340036	8
vector 1790 World.node[932].appl.middleware.ExampleService proof_size ETV
vector 1791 World.node[932].appl.middleware.ExampleService proof_requested ETV
1763	146166697	3516.069187904242	45
1762	146166697	3516.069187904242	15
1685	135175311	3353.086593824695	37
1685	139650096	3413.086593824695	55
1685	143731290	3473.086593824695	56
1685	147025730	3533.086593824695	32
1684	135175311	3353.086593824695	3
1684	139650096	3413.086593824695	15
1684	143731290	3473.086593824695	10
1684	147025730	3533.086593824695	3
1691	136492965	3374.030410676822	41
1691	141091354	3434.030410676822	55
1691	145132485	3494.030410676822	49
1691	148017883	3554.030410676822	44
1690	136492965	3374.030410676822	10
1690	141091354	3434.030410676822	14
1690	145132485	3494.030410676822	1
1690	148017883	3554.030410676822	1
1721	140114539	3421.02962446569	53
1721	144300269	3481.02962446569	51
1721	147391769	3541.02962446569	33
1720	140114539	3421.02962446569	9
1720	144300269	3481.02962446569	24
1720	147391769	3541.02962446569	12
1727	141631624	3441.050267840317	54
1727	145486222	3501.050267840317	43
1727	148390188	3561.050267840317	50
1726	141631624	3441.050267840317	20
1726	145486222	3501.050267840317	0
1726	148390188	3561.050267840317	13
1745	143795212	3474.069470655941	50
1745	147064350	3534.069470655941	34
1744	143795212	3474.069470655941	23
1744	147064350	3534.069470655941	8
1637	130302990	3280.024268906657	50
1637	134173530	3340.024268906657	57
1637	138686267	3400.024268906657	59
1637	142788448	3460.024268906657	49
1637	146376635	3520.024268906657	31
1636	130302990	3280.024268906657	28
1636	134173530	3340.024268906657	20
1636	138686267	3400.024268906657	0
1636	142788448	3460.024268906657	9
1636	146376635	3520.024268906657	6
vector 1792 World.node[935].appl.middleware.ExampleService proof_size ETV
vector 1793 World.node[935].appl.middleware.ExampleService proof_requested ETV
1673	134178398	3340.060357513512	60
1673	138692176	3400.060357513512	59
1673	142798629	3460.060357513512	51
1673	146386691	3520.060357513512	45
1672	134178398	3340.060357513512	0
1672	138692176	3400.060357513512	16
1672	142798629	3460.060357513512	2
1672	146386691	3520.060357513512	0
1767	146546858	3523.055187020521	45
1766	146546858	3523.055187020521	13
1719	140059700	3420.01702165578	53
1719	144236792	3480.01702165578	49
1719	147340710	3540.01702165578	41
1718	140059700	3420.01702165578	21
1718	144236792	3480.01702165578	18
1718	147340710	3540.01702165578	2
vector 1794 World.node[921].appl.middleware.ExampleService proof_size ETV
vector 1795 World.node[921].appl.middleware.ExampleService proof_requested ETV
vector 1796 World.node[923].appl.middleware.ExampleService proof_size ETV
vector 1797 World.node[923].appl.middleware.ExampleService proof_requested ETV
vector 1798 World.node[926].appl.middleware.ExampleService proof_size ETV
vector 1799 World.node[926].appl.middleware.ExampleService proof_requested ETV
vector 1800 World.node[936].appl.middleware.ExampleService proof_size ETV
vector 1801 World.node[936].appl.middleware.ExampleService proof_requested ETV
vector 1802 World.node[924].appl.middleware.ExampleService proof_size ETV
vector 1803 World.node[924].appl.middleware.ExampleService proof_requested ETV
vector 1804 World.node[928].appl.middleware.ExampleService proof_size ETV
vector 1805 World.node[928].appl.middleware.ExampleService proof_requested ETV
1601	126690735	3211.030597046087	43
1601	129726665	3271.030597046087	47
1601	133487892	3331.030597046087	54
1601	137937445	3391.030597046087	59
1601	142250273	3451.030597046087	47
1601	145934057	3511.030597046087	43
1601	148921153	3571.030597046087	45
1600	126690735	3211.030597046087	15
1600	129726665	3271.030597046087	12
1600	133487892	3331.030597046087	10
1600	137937445	3391.030597046087	21
1600	142250273	3451.030597046087	9
1600	145934057	3511.030597046087	10
1600	148921153	3571.030597046087	14
1765	146503359	3522.092832899978	40
1765	149441284	3582.092832899978	13
1764	146503359	3522.092832899978	9
1764	149441284	3582.092832899978	5
1757	145526569	3502.034549952112	41
1757	148440717	3562.034549952112	47
1756	145526569	3502.034549952112	10
1756	148440717	3562.034549952112	19
1589	125471976	3180.034170017205	40
1589	128058541	3240.034170017205	43
1589	131501239	3300.034170017205	51
1589	135590883	3360.034170017205	48
1589	140062437	3420.034170017205	50
1589	144239699	3480.034170017205	48
1589	147341787	3540.034170017205	45
1588	125471976	3180.034170017205	11
1588	128058541	3240.034170017205	13
1588	131501239	3300.034170017205	16
1588	135590883	3360.034170017205	17
1588	140062437	3420.034170017205	1
1588	144239699	3480.034170017205	18
1588	147341787	3540.034170017205	2
vector 1806 World.node[941].appl.middleware.ExampleService proof_size ETV
vector 1807 World.node[941].appl.middleware.ExampleService proof_requested ETV
1737	142857811	3461.010847576498	38
1737	146426100	3521.010847576498	39
1737	149375744	3581.010847576498	40
1736	142857811	3461.010847576498	5
1736	146426100	3521.010847576498	7
1736	149375744	3581.010847576498	7
vector 1808 World.node[943].appl.middleware.ExampleService proof_size ETV
vector 1809 World.node[943].appl.middleware.ExampleService proof_requested ETV
vector 1810 World.node[938].appl.middleware.ExampleService proof_size ETV
vector 1811 World.node[938].appl.middleware.ExampleService proof_requested ETV
1731	141935515	3446.081058909092	54
1731	145701512	3506.081058909092	46
1731	148655556	3566.081058909092	48
1730	141935515	3446.081058909092	21
1730	145701512	3506.081058909092	1
1730	148655556	3566.081058909092	17
1769	146597628	3524.093800464529	44
1769	149506386	3584.093800464529	37
1768	146597628	3524.093800464529	19
1768	149506386	3584.093800464529	0
vector 1812 World.node[933].appl.middleware.ExampleService proof_size ETV
vector 1813 World.node[933].appl.middleware.ExampleService proof_requested ETV
vector 1814 World.node[934].appl.middleware.ExampleService proof_size ETV
vector 1815 World.node[934].appl.middleware.ExampleService proof_requested ETV
vector 1816 World.node[940].appl.middleware.ExampleService proof_size ETV
vector 1817 World.node[940].appl.middleware.ExampleService proof_requested ETV
1729	141690547	3442.078661170928	53
1729	145528619	3502.078661170928	47
1729	148445399	3562.078661170928	46
1729	151053039	3622.078661170928	37
1728	141690547	3442.078661170928	18
1728	145528619	3502.078661170928	8
1728	148445399	3562.078661170928	16
1728	151053039	3622.078661170928	14
1799	149334993	3580.00137043132	42
1798	149334993	3580.00137043132	20
1647	131448270	3299.062987470627	48
1647	135540088	3359.062987470627	52
1647	140012895	3419.062987470627	57
1647	144185826	3479.062987470627	47
1647	147296575	3539.062987470627	38
1647	150042153	3599.062987470627	37
1646	131448270	3299.062987470627	8
1646	135540088	3359.062987470627	10
1646	140012895	3419.062987470627	11
1646	144185826	3479.062987470627	15
1646	147296575	3539.062987470627	10
1646	150042153	3599.062987470627	10
1777	147432307	3542.051807277719	33
1777	150152279	3602.051807277719	25
1776	147432307	3542.051807277719	11
1776	150152279	3602.051807277719	4
vector 1818 World.node[939].appl.middleware.ExampleService proof_size ETV
vector 1819 World.node[939].appl.middleware.ExampleService proof_requested ETV
vector 1820 World.node[937].appl.middleware.ExampleService proof_size ETV
vector 1821 World.node[937].appl.middleware.ExampleService proof_requested ETV
1625	129501448	3267.018550942047	48
1625	133236677	3327.018550942047	56
1625	137567839	3387.018550942047	59
1625	141994572	3447.018550942047	46
1625	145754822	3507.018550942047	44
1625	148706721	3567.018550942047	47
1625	151227111	3627.018550942047	41
1624	129501448	3267.018550942047	25
1624	133236677	3327.018550942047	16
1624	137567839	3387.018550942047	0
1624	141994572	3447.018550942047	14
1624	145754822	3507.018550942047	9
1624	148706721	3567.018550942047	17
1624	151227111	3627.018550942047	16
1801	149338502	3580.061336390441	29
1800	149338502	3580.061336390441	8
1751	144574555	3485.003614656813	33
1751	147561841	3545.003614656813	45
1751	150283674	3605.003614656813	44
1750	144574555	3485.003614656813	1
1750	147561841	3545.003614656813	3
1750	150283674	3605.003614656813	8
1783	147719857	3548.044005290233	48
1783	150438408	3608.044005290233	30
1782	147719857	3548.044005290233	12
1782	150438408	3608.044005290233	11
vector 1822 World.node[942].appl.middleware.ExampleService proof_size ETV
vector 1823 World.node[942].appl.middleware.ExampleService proof_requested ETV
1771	146798579	3528.034104095935	45
1771	149651775	3588.034104095935	43
1770	146798579	3528.034104095935	13
1770	149651775	3588.034104095935	11
1797	149138873	3576.009186125523	43
1797	151487364	3636.009186125523	27
1796	149138873	3576.009186125523	10
1796	151487364	3636.009186125523	6
1813	150813303	3616.090595394978	43
1812	150813303	3616.090595394978	16
1753	144988664	3491.012797416723	52
1753	147880186	3551.012797416723	47
1753	150600898	3611.012797416723	46
1753	152303117	3671.012797416723	29
1752	144988664	3491.012797416723	7
1752	147880186	3551.012797416723	7
1752	150600898	3611.012797416723	8
1752	152303117	3671.012797416723	4
1607	127614091	3230.07605788759	40
1607	130918762	3290.07605788759	47
1607	134964081	3350.07605788759	52
1607	139447573	3410.07605788759	57
1607	143494294	3470.07605788759	53
1607	146894203	3530.07605788759	45
1607	149722523	3590.07605788759	41
1607	151816675	3650.07605788759	32
1606	127614091	3230.07605788759	13
1606	130918762	3290.07605788759	19
1606	134964081	3350.07605788759	1
1606	139447573	3410.07605788759	19
1606	143494294	3470.07605788759	21
1606	146894203	3530.07605788759	19
1606	149722523	3590.07605788759	8
1606	151816675	3650.07605788759	8
1755	144989035	3491.013556077122	52
1755	147880188	3551.013556077122	46
1755	150601231	3611.013556077122	45
1755	152303346	3671.013556077122	25
1754	144989035	3491.013556077122	15
1754	147880188	3551.013556077122	0
1754	150601231	3611.013556077122	10
1754	152303346	3671.013556077122	1
1803	149502939	3584.036415656656	36
1803	151695739	3644.036415656656	34
1802	149502939	3584.036415656656	9
1802	151695739	3644.036415656656	11
1787	147978110	3553.000640865415	24
1787	150684156	3613.000640865415	44
1787	152340709	3673.000640865415	31
1786	147978110	3553.000640865415	2
1786	150684156	3613.000640865415	3
1786	152340709	3673.000640865415	5
1709	139015628	3404.098253062367	55
1709	143087418	3464.098253062367	54
1709	146598960	3524.098253062367	44
1709	149507355	3584.098253062367	37
1709	151697741	3644.098253062367	35
1708	139015628	3404.098253062367	9
1708	143087418	3464.098253062367	14
1708	146598960	3524.098253062367	19
1708	149507355	3584.098253062367	11
1708	151697741	3644.098253062367	11
1775	147345242	3540.061405778397	41
1775	150083267	3600.061405778397	35
1775	152037491	3660.061405778397	24
1774	147345242	3540.061405778397	12
1774	150083267	3600.061405778397	12
1774	152037491	3660.061405778397	8
1811	150653619	3612.091122321086	41
1811	152325908	3672.091122321086	32
1810	150653619	3612.091122321086	16
1810	152325908	3672.091122321086	9
1791	148478462	3563.016419704515	29
1791	151078316	3623.016419704515	42
1791	152495655	3683.016419704515	28
1790	148478462	3563.016419704515	10
1790	151078316	3623.016419704515	17
1790	152495655	3683.016419704515	5
1823	151441601	3634.019752797508	35
1823	152638550	3694.019752797508	13
1822	151441601	3634.019752797508	6
1822	152638550	3694.019752797508	2
1789	147980536	3553.02372788107	47
1789	150686742	3613.02372788107	44
1789	152342272	3673.02372788107	21
1788	147980536	3553.02372788107	9
1788	150686742	3613.02372788107	2
1788	152342272	3673.02372788107	4
1735	142788846	3460.028460742929	49
1735	146376977	3520.028460742929	46
1735	149336280	3580.028460742929	42
1735	151587772	3640.028460742929	34
1735	152718368	3700.028460742929	24
1734	142788846	3460.028460742929	5
1734	146376977	3520.028460742929	0
1734	149336280	3580.028460742929	10
1734	151587772	3640.028460742929	8
1734	152718368	3700.028460742929	6
1741	143006921	3463.059831054765	43
1741	146547202	3523.059831054765	40
1741	149472492	3583.059831054765	44
1741	151676995	3643.059831054765	33
1741	152754390	3703.059831054765	15
1740	143006921	3463.059831054765	17
1740	146547202	3523.059831054765	1
1740	149472492	3583.059831054765	14
1740	151676995	3643.059831054765	6
1740	152754390	3703.059831054765	3
1809	150649203	3612.044636300276	38
1809	152324297	3672.044636300276	32
1808	150649203	3612.044636300276	27
1808	152324297	3672.044636300276	20
1793	148969579	3572.096321211709	49
1793	151387200	3632.096321211709	39
1793	152612083	3692.096321211709	24
1792	148969579	3572.096321211709	13
1792	151387200	3632.096321211709	13
1792	152612083	3692.096321211709	2
1773	146984484	3532.020359569765	42
1773	149788612	3592.020359569765	39
1773	151852791	3652.020359569765	31
1773	152833262	3712.020359569765	18
1772	146984484	3532.020359569765	17
1772	149788612	3592.020359569765	8
1772	151852791	3652.020359569765	7
1772	152833262	3712.020359569765	8
1699	137008225	3380.05256023719	44
1699	141572440	3440.05256023719	44
1699	145444606	3500.05256023719	47
1699	148333170	3560.05256023719	51
1699	150967970	3620.05256023719	42
1699	152454982	3680.05256023719	29
1699	152995405	3740.05256023719	16
1698	137008225	3380.05256023719	9
1698	141572440	3440.05256023719	28
1698	145444606	3500.05256023719	9
1698	148333170	3560.05256023719	2
1698	150967970	3620.05256023719	2
1698	152454982	3680.05256023719	1
1698	152995405	3740.05256023719	0
1795	149100665	3575.039612883586	28
1795	151464270	3635.039612883586	31
1795	152651283	3695.039612883586	24
1795	153091636	3755.039612883586	11
1794	149100665	3575.039612883586	10
1794	151464270	3635.039612883586	9
1794	152651283	3695.039612883586	11
1794	153091636	3755.039612883586	3
1781	147624771	3546.060294766934	44
1781	150345953	3606.060294766934	40
1781	152171818	3666.060294766934	27
1781	152922145	3726.060294766934	16
1780	147624771	3546.060294766934	13
1780	150345953	3606.060294766934	17
1780	152171818	3666.060294766934	12
1780	152922145	3726.060294766934	5
1817	150967061	3620.049752968317	43
1817	152454978	3680.049752968317	27
1817	152995279	3740.049752968317	12
1816	150967061	3620.049752968317	21
1816	152454978	3680.049752968317	10
1816	152995279	3740.049752968317	1
1819	151226544	3627.016292454698	37
1819	152553752	3687.016292454698	18
1819	153038401	3747.016292454698	12
1818	151226544	3627.016292454698	13
1818	152553752	3687.016292454698	3
1818	153038401	3747.016292454698	6
1723	140805267	3430.017486970383	54
1723	144923762	3490.017486970383	50
1723	147820107	3550.017486970383	47
1723	150562096	3610.017486970383	43
1723	152277199	3670.017486970383	26
1723	152942968	3730.017486970383	10
1722	140805267	3430.017486970383	23
1722	144923762	3490.017486970383	23
1722	147820107	3550.017486970383	5
1722	150562096	3610.017486970383	7
1722	152277199	3670.017486970383	10
1722	152942968	3730.017486970383	1
1717	140059153	3420.016645570425	49
1717	144236291	3480.016645570425	52
1717	147340708	3540.016645570425	43
1717	150076031	3600.016645570425	37
1717	152031780	3660.016645570425	32
1717	152885055	3720.016645570425	17
1717	153185382	3780.016645570425	11
1716	140059153	3420.016645570425	9
1716	144236291	3480.016645570425	13
1716	147340708	3540.016645570425	10
1716	150076031	3600.016645570425	9
1716	152031780	3660.016645570425	8
1716	152885055	3720.016645570425	3
1716	153185382	3780.016645570425	0
1759	145852589	3509.095361140976	49
1759	148819951	3569.095361140976	46
1759	151293224	3629.095361140976	40
1759	152578057	3689.095361140976	25
1759	153052358	3749.095361140976	16
1758	145852589	3509.095361140976	13
1758	148819951	3569.095361140976	12
1758	151293224	3629.095361140976	14
1758	152578057	3689.095361140976	4
1758	153052358	3749.095361140976	6
1821	151231864	3627.091421166644	40
1821	152555387	3687.091421166644	28
1821	153039515	3747.091421166644	14
1820	151231864	3627.091421166644	0
1820	152555387	3687.091421166644	5
1820	153039515	3747.091421166644	4
1725	141033609	3433.036573712039	52
1725	145094227	3493.036573712039	53
1725	147982326	3553.036573712039	46
1725	150687482	3613.036573712039	42
1725	152342580	3673.036573712039	30
1725	152958370	3733.036573712039	17
1725	153214359	3793.036573712039	8
1724	141033609	3433.036573712039	0
1724	145094227	3493.036573712039	18
1724	147982326	3553.036573712039	10
1724	150687482	3613.036573712039	0
1724	152342580	3673.036573712039	13
1724	152958370	3733.036573712039	4
1724	153214359	3793.036573712039	4
1805	149504189	3584.070529617951	34
1805	151697223	3644.070529617951	34
1805	152763800	3704.070529617951	22
1805	153137316	3764.070529617951	13
1805	153254576	3824.070529617951	6
1804	149504189	3584.070529617951	18
1804	151697223	3644.070529617951	12
1804	152763800	3704.070529617951	10
1804	153137316	3764.070529617951	1
1804	153254576	3824.070529617951	2
1815	150890648	3618.033796141762	39
1815	152427287	3678.033796141762	27
1815	152985201	3738.033796141762	17
1815	153223833	3798.033796141762	9
1815	153295386	3858.033796141762	4
1814	150890648	3618.033796141762	11
1814	152427287	3678.033796141762	9
1814	152985201	3738.033796141762	2
1814	153223833	3798.033796141762	3
1814	153295386	3858.033796141762	3
1739	142940547	3462.03117707849	53
1739	146496656	3522.03117707849	43
1739	149436570	3582.03117707849	42
1739	151655948	3642.03117707849	33
1739	152744089	3702.03117707849	23
1739	153130641	3762.03117707849	13
1739	153252476	3822.03117707849	5
1738	142940547	3462.03117707849	18
1738	146496656	3522.03117707849	12
1738	149436570	3582.03117707849	15
1738	151655948	3642.03117707849	9
1738	152744089	3702.03117707849	8
1738	153130641	3762.03117707849	3
1738	153252476	3822.03117707849	1
1761	145896921	3510.093069926952	30
1761	148879168	3570.093069926952	47
1761	151332386	3630.093069926952	36
1761	152589317	3690.093069926952	20
1761	153058939	3750.093069926952	16
1761	153239723	3810.093069926952	7
1761	153303775	3870.093069926952	4
1760	145896921	3510.093069926952	9
1760	148879168	3570.093069926952	14
1760	151332386	3630.093069926952	14
1760	152589317	3690.093069926952	4
1760	153058939	3750.093069926952	5
1760	153239723	3810.093069926952	2
1760	153303775	3870.093069926952	1
1785	147771681	3549.052558506676	46
1785	150497002	3609.052558506676	44
1785	152244150	3669.052558506676	32
1785	152939076	3729.052558506676	17
1785	153206200	3789.052558506676	9
1785	153282528	3846.11082344855	5
1784	147771681	3549.052558506676	0
1784	150497002	3609.052558506676	16
1784	152244150	3669.052558506676	17
1784	152939076	3729.052558506676	6
1784	153206200	3789.052558506676	4
1784	153282528	3846.11082344855	5
1779	147478352	3543.050714565674	39
1779	150199628	3603.050714565674	36
1779	152099855	3663.050714565674	33
1779	152903284	3723.050714565674	17
1779	153193389	3783.050714565674	10
1779	153278197	3843.050714565674	6
1779	153317625	3900.143445556417	1
1778	147478352	3543.050714565674	13
1778	150199628	3603.050714565674	6
1778	152099855	3663.050714565674	16
1778	152903284	3723.050714565674	7
1778	153193389	3783.050714565674	2
1778	153278197	3843.050714565674	5
1778	153317625	3900.143445556417	1
1807	150119800	3601.083335763379	41
1807	152062536	3661.083335763379	33
1807	152892463	3721.083335763379	17
1807	153188294	3781.083335763379	10
1807	153275747	3841.083335763379	6
1807	153317285	3898.143704238819	1
1806	150119800	3601.083335763379	8
1806	152062536	3661.083335763379	12
1806	152892463	3721.083335763379	6
1806	153188294	3781.083335763379	3
1806	153275747	3841.083335763379	2
1806	153317285	3898.143704238819	1

