file 323651 1573988089                                          
version 2
run No_Obstacles-1-20191117-11:36:47-6118
attr configname No_Obstacles
attr datetime 20191117-11:36:47
attr experiment No_Obstacles
attr inifile omnetpp.ini
attr iterationvars $0=40
attr iterationvarsf 40-
attr measurement $0=40
attr network artery.veins.World
attr processid 6118
attr repetition 0
attr replication #0
attr resultdir results
attr runnumber 1
attr seedset 1
param *.traci.launcher.sumocfg "\"No_Obstacles/run.sumo.cfg\""
param *.node[*].nic.mac1609_4.txPower 20mW
param *.node[*].nic.phy80211p.decider "xmldoc(\"config.xml\")"
param *.node[*].nic.phy80211p.analogueModels "xmldoc(\"config.xml\")"
param *.node[*].applType "\"artery.veins.ApplicationLayer\""
param *.node[*].appl.middleware.updateInterval 0.1s
param *.node[*].appl.middleware.datetime "\"2013-06-01 12:35:00\""
param *.node[*].appl.middleware.services "xmldoc(\"services.xml\")"
param *.node[*].appl.middleware.ExampleService.DecisionLogic 40
param *.node[*].appl.middleware.ExampleService.NeighboringWindow 60
param *.traci.core.version -1
param *.traci.launcher.typename "\"PosixLauncher\""
param *.playgroundSizeX 4000m
param *.playgroundSizeY 4000m
param *.playgroundSizeZ 50m
param *.connectionManager.maxInterfDist 1500m
param *.connectionManager.sendDirect true
param *.connectionManager.coreDebug false

vector 0 World.node[3].appl.middleware.ExampleService proof_size ETV
vector 1 World.node[3].appl.middleware.ExampleService proof_requested ETV
vector 2 World.node[7].appl.middleware.ExampleService proof_size ETV
vector 3 World.node[7].appl.middleware.ExampleService proof_requested ETV
vector 4 World.node[9].appl.middleware.ExampleService proof_size ETV
vector 5 World.node[9].appl.middleware.ExampleService proof_requested ETV
1	1733 25 6496 6496 20.146903639706 20.146903639706 1 3 3 3 9
0	1758 25 6496 6496 20.146903639706 20.146903639706 1 3 3 3 9
vector 6 World.node[1].appl.middleware.ExampleService proof_size ETV
vector 7 World.node[1].appl.middleware.ExampleService proof_requested ETV
vector 8 World.node[5].appl.middleware.ExampleService proof_size ETV
vector 9 World.node[5].appl.middleware.ExampleService proof_requested ETV
vector 10 World.node[11].appl.middleware.ExampleService proof_size ETV
vector 11 World.node[11].appl.middleware.ExampleService proof_requested ETV
vector 12 World.node[15].appl.middleware.ExampleService proof_size ETV
vector 13 World.node[15].appl.middleware.ExampleService proof_requested ETV
vector 14 World.node[10].appl.middleware.ExampleService proof_size ETV
vector 15 World.node[10].appl.middleware.ExampleService proof_requested ETV
vector 16 World.node[0].appl.middleware.ExampleService proof_size ETV
vector 17 World.node[0].appl.middleware.ExampleService proof_requested ETV
5	2655 26 30663 30663 38.048372584931 38.048372584931 1 8 8 8 64
4	2681 26 30663 30663 38.048372584931 38.048372584931 1 1 1 1 1
vector 18 World.node[4].appl.middleware.ExampleService proof_size ETV
vector 19 World.node[4].appl.middleware.ExampleService proof_requested ETV
vector 20 World.node[6].appl.middleware.ExampleService proof_size ETV
vector 21 World.node[6].appl.middleware.ExampleService proof_requested ETV
vector 22 World.node[13].appl.middleware.ExampleService proof_size ETV
vector 23 World.node[13].appl.middleware.ExampleService proof_requested ETV
vector 24 World.node[20].appl.middleware.ExampleService proof_size ETV
vector 25 World.node[20].appl.middleware.ExampleService proof_requested ETV
vector 26 World.node[8].appl.middleware.ExampleService proof_size ETV
vector 27 World.node[8].appl.middleware.ExampleService proof_requested ETV
vector 28 World.node[12].appl.middleware.ExampleService proof_size ETV
vector 29 World.node[12].appl.middleware.ExampleService proof_requested ETV
vector 30 World.node[17].appl.middleware.ExampleService proof_size ETV
vector 31 World.node[17].appl.middleware.ExampleService proof_requested ETV
vector 32 World.node[18].appl.middleware.ExampleService proof_size ETV
vector 33 World.node[18].appl.middleware.ExampleService proof_requested ETV
17	3877 29 110094 110094 59.054966247594 59.054966247594 1 14 14 14 196
16	3906 28 110094 110094 59.054966247594 59.054966247594 1 7 7 7 49
7	3934 55 46066 429066 44.081822672207 104.081822672207 2 9 19 28 442
6	3989 54 46066 429066 44.081822672207 104.081822672207 2 4 5 9 41
vector 34 World.node[14].appl.middleware.ExampleService proof_size ETV
vector 35 World.node[14].appl.middleware.ExampleService proof_requested ETV
vector 36 World.node[16].appl.middleware.ExampleService proof_size ETV
vector 37 World.node[16].appl.middleware.ExampleService proof_requested ETV
vector 38 World.node[25].appl.middleware.ExampleService proof_size ETV
vector 39 World.node[25].appl.middleware.ExampleService proof_requested ETV
vector 40 World.node[23].appl.middleware.ExampleService proof_size ETV
vector 41 World.node[23].appl.middleware.ExampleService proof_requested ETV
vector 42 World.node[19].appl.middleware.ExampleService proof_size ETV
vector 43 World.node[19].appl.middleware.ExampleService proof_requested ETV
vector 44 World.node[29].appl.middleware.ExampleService proof_size ETV
vector 45 World.node[29].appl.middleware.ExampleService proof_requested ETV
vector 46 World.node[30].appl.middleware.ExampleService proof_size ETV
vector 47 World.node[30].appl.middleware.ExampleService proof_requested ETV
21	5072 59 214661 912907 78.097279381612 138.097279381612 2 16 28 44 1040
20	5131 58 214661 912907 78.097279381612 138.097279381612 2 7 16 23 305
43	5189 30 731984 731984 128.053712577908 128.053712577908 1 20 20 20 400
42	5219 29 731984 731984 128.053712577908 128.053712577908 1 7 7 7 49
vector 48 World.node[24].appl.middleware.ExampleService proof_size ETV
vector 49 World.node[24].appl.middleware.ExampleService proof_requested ETV
23	5395 59 247717 998831 83.011086605769 143.011086605769 2 17 27 44 1018
22	5454 57 247717 998831 83.011086605769 143.011086605769 2 4 5 9 41
vector 50 World.node[36].appl.middleware.ExampleService proof_size ETV
vector 51 World.node[36].appl.middleware.ExampleService proof_requested ETV
vector 52 World.node[26].appl.middleware.ExampleService proof_size ETV
vector 53 World.node[26].appl.middleware.ExampleService proof_requested ETV
vector 54 World.node[27].appl.middleware.ExampleService proof_size ETV
vector 55 World.node[27].appl.middleware.ExampleService proof_requested ETV
vector 56 World.node[28].appl.middleware.ExampleService proof_size ETV
vector 57 World.node[28].appl.middleware.ExampleService proof_requested ETV
27	6099 60 309242 1153779 91.033258805913 151.033258805913 2 18 28 46 1108
26	6159 59 309242 1153779 91.033258805913 151.033258805913 2 6 10 16 136
vector 58 World.node[31].appl.middleware.ExampleService proof_size ETV
vector 59 World.node[31].appl.middleware.ExampleService proof_requested ETV
vector 60 World.node[33].appl.middleware.ExampleService proof_size ETV
vector 61 World.node[33].appl.middleware.ExampleService proof_requested ETV
vector 62 World.node[34].appl.middleware.ExampleService proof_size ETV
vector 63 World.node[34].appl.middleware.ExampleService proof_requested ETV
vector 64 World.node[40].appl.middleware.ExampleService proof_size ETV
vector 65 World.node[40].appl.middleware.ExampleService proof_requested ETV
vector 66 World.node[38].appl.middleware.ExampleService proof_size ETV
vector 67 World.node[38].appl.middleware.ExampleService proof_requested ETV
vector 68 World.node[32].appl.middleware.ExampleService proof_size ETV
vector 69 World.node[32].appl.middleware.ExampleService proof_requested ETV
13	7100 86 94858 1667930 56.04897046343 176.04897046343 3 13 28 62 1394
12	7186 83 94858 1667930 56.04897046343 176.04897046343 3 4 8 18 116
37	7269 61 573563 1684285 117.001388846315 177.001388846315 2 17 21 38 730
36	7330 61 573563 1684285 117.001388846315 177.001388846315 2 11 11 22 242
vector 70 World.node[39].appl.middleware.ExampleService proof_size ETV
vector 71 World.node[39].appl.middleware.ExampleService proof_requested ETV
65	7538 31 1744271 1744271 180.093794639525 180.093794639525 1 30 30 30 900
64	7569 30 1744271 1744271 180.093794639525 180.093794639525 1 8 8 8 64
vector 72 World.node[37].appl.middleware.ExampleService proof_size ETV
vector 73 World.node[37].appl.middleware.ExampleService proof_requested ETV
35	7746 61 497779 1547208 110.080394544126 170.080394544126 2 22 31 53 1445
34	7807 61 497779 1547208 110.080394544126 170.080394544126 2 11 13 24 290
15	7868 90 101379 1686482 57.058840857446 177.058840857446 3 12 27 60 1314
14	7958 87 101379 1686482 57.058840857446 177.058840857446 3 4 8 18 116
vector 74 World.node[47].appl.middleware.ExampleService proof_size ETV
vector 75 World.node[47].appl.middleware.ExampleService proof_requested ETV
vector 76 World.node[44].appl.middleware.ExampleService proof_size ETV
vector 77 World.node[44].appl.middleware.ExampleService proof_requested ETV
vector 78 World.node[45].appl.middleware.ExampleService proof_size ETV
vector 79 World.node[45].appl.middleware.ExampleService proof_requested ETV
3	8486 84 23034 1222074 34.087825622945 154.087825622945 3 6 27 47 961
2	8570 83 23034 1222074 34.087825622945 154.087825622945 3 4 15 24 266
47	8653 61 944803 2233485 140.034576383373 200.034576383373 2 26 28 54 1460
46	8714 60 944803 2233485 140.034576383373 200.034576383373 2 6 11 17 157
vector 80 World.node[42].appl.middleware.ExampleService proof_size ETV
vector 81 World.node[42].appl.middleware.ExampleService proof_requested ETV
vector 82 World.node[52].appl.middleware.ExampleService proof_size ETV
vector 83 World.node[52].appl.middleware.ExampleService proof_requested ETV
vector 84 World.node[54].appl.middleware.ExampleService proof_size ETV
vector 85 World.node[54].appl.middleware.ExampleService proof_requested ETV
vector 86 World.node[41].appl.middleware.ExampleService proof_size ETV
vector 87 World.node[41].appl.middleware.ExampleService proof_requested ETV
55	9362 62 1412900 2864990 164.051427444071 224.051427444071 2 24 30 54 1476
54	9424 62 1412900 2864990 164.051427444071 224.051427444071 2 11 12 23 265
vector 88 World.node[51].appl.middleware.ExampleService proof_size ETV
vector 89 World.node[51].appl.middleware.ExampleService proof_requested ETV
61	9633 31 1566854 1566854 171.090645210259 171.090645210259 1 28 28 28 784
60	9664 31 1566854 1566854 171.090645210259 171.090645210259 1 16 16 16 256
vector 90 World.node[43].appl.middleware.ExampleService proof_size ETV
vector 91 World.node[43].appl.middleware.ExampleService proof_requested ETV
vector 92 World.node[53].appl.middleware.ExampleService proof_size ETV
vector 93 World.node[53].appl.middleware.ExampleService proof_requested ETV
59	9989 62 1480338 2972058 167.089625389036 227.089625389036 2 30 32 62 1924
58	10051 61 1480338 2972058 167.089625389036 227.089625389036 2 1 16 17 257
vector 94 World.node[49].appl.middleware.ExampleService proof_size ETV
vector 95 World.node[49].appl.middleware.ExampleService proof_requested ETV
49	10259 62 1118218 2452672 149.008568350412 209.008568350412 2 29 30 59 1741
48	10321 60 1118218 2452672 149.008568350412 209.008568350412 2 1 4 5 17
vector 96 World.node[46].appl.middleware.ExampleService proof_size ETV
vector 97 World.node[46].appl.middleware.ExampleService proof_requested ETV
29	10528 91 347331 2616842 95.049241614807 215.049241614807 3 18 26 68 1576
28	10619 89 347331 2616842 95.049241614807 215.049241614807 3 6 10 23 185
93	10708 31 3102258 3102258 231.042763622478 231.042763622478 1 28 28 28 784
92	10739 31 3102258 3102258 231.042763622478 231.042763622478 1 12 12 12 144
vector 98 World.node[55].appl.middleware.ExampleService proof_size ETV
vector 99 World.node[55].appl.middleware.ExampleService proof_requested ETV
vector 100 World.node[57].appl.middleware.ExampleService proof_size ETV
vector 101 World.node[57].appl.middleware.ExampleService proof_requested ETV
vector 102 World.node[50].appl.middleware.ExampleService proof_size ETV
vector 103 World.node[50].appl.middleware.ExampleService proof_requested ETV
vector 104 World.node[48].appl.middleware.ExampleService proof_size ETV
vector 105 World.node[48].appl.middleware.ExampleService proof_requested ETV
53	11364 62 1335823 2759967 160.044284015847 220.044284015847 2 24 32 56 1600
52	11426 61 1335823 2759967 160.044284015847 220.044284015847 2 9 16 25 337
67	11487 62 1809873 3456485 183.032180888462 243.032180888462 2 32 34 66 2180
66	11549 61 1809873 3456485 183.032180888462 243.032180888462 2 8 16 24 320
vector 106 World.node[58].appl.middleware.ExampleService proof_size ETV
vector 107 World.node[58].appl.middleware.ExampleService proof_requested ETV
vector 108 World.node[59].appl.middleware.ExampleService proof_size ETV
vector 109 World.node[59].appl.middleware.ExampleService proof_requested ETV
vector 110 World.node[56].appl.middleware.ExampleService proof_size ETV
vector 111 World.node[56].appl.middleware.ExampleService proof_requested ETV
85	12057 31 2687355 2687355 217.130045638909 217.130045638909 1 18 18 18 324
84	12088 30 2687355 2687355 217.130045638909 217.130045638909 1 7 7 7 49
25	12118 122 308697 4247861 91.008945412096 271.008945412096 4 18 37 117 3623
24	12240 120 308697 4247861 91.008945412096 271.008945412096 4 7 19 45 603
19	12360 121 201604 3838587 76.086791846901 256.086791846901 4 13 32 93 2353
18	12481 117 201604 3838587 76.086791846901 256.086791846901 4 2 7 21 125
51	12598 62 1298236 2704807 158.059861696558 218.059861696558 2 29 31 60 1802
50	12660 62 1298236 2704807 158.059861696558 218.059861696558 2 16 22 38 740
39	12722 92 597171 3346411 119.042218270432 239.042218270432 3 18 36 84 2520
38	12814 90 597171 3346411 119.042218270432 239.042218270432 3 0 10 17 149
11	12904 120 76141 3132956 52.043598487577 232.043598487577 4 11 32 86 2082
10	13024 117 76141 3132956 52.043598487577 232.043598487577 4 3 17 34 398
33	13141 122 364794 4454112 97.009812316415 277.009812316415 4 18 34 113 3353
32	13263 120 364794 4454112 97.009812316415 277.009812316415 4 6 20 52 846
vector 112 World.node[66].appl.middleware.ExampleService proof_size ETV
vector 113 World.node[66].appl.middleware.ExampleService proof_requested ETV
vector 114 World.node[61].appl.middleware.ExampleService proof_size ETV
vector 115 World.node[61].appl.middleware.ExampleService proof_requested ETV
vector 116 World.node[60].appl.middleware.ExampleService proof_size ETV
vector 117 World.node[60].appl.middleware.ExampleService proof_requested ETV
57	13830 93 1442082 4713422 165.094206960569 285.094206960569 3 20 32 73 1865
56	13923 91 1442082 4713422 165.094206960569 285.094206960569 3 6 10 24 200
vector 118 World.node[64].appl.middleware.ExampleService proof_size ETV
vector 119 World.node[64].appl.middleware.ExampleService proof_requested ETV
111	14163 32 4196832 4196832 269.097160886507 269.097160886507 1 37 37 37 1369
110	14195 31 4196832 4196832 269.097160886507 269.097160886507 1 9 9 9 81
9	14226 146 55707 4776297 47.078418978793 287.078418978793 5 10 37 130 3854
8	14372 143 55707 4776297 47.078418978793 287.078418978793 5 4 28 60 1114
vector 120 World.node[62].appl.middleware.ExampleService proof_size ETV
vector 121 World.node[62].appl.middleware.ExampleService proof_requested ETV
vector 122 World.node[65].appl.middleware.ExampleService proof_size ETV
vector 123 World.node[65].appl.middleware.ExampleService proof_requested ETV
vector 124 World.node[71].appl.middleware.ExampleService proof_size ETV
vector 125 World.node[71].appl.middleware.ExampleService proof_requested ETV
71	14962 93 1900273 5323961 186.044080341584 306.044080341584 3 23 34 89 2709
70	15055 92 1900273 5323961 186.044080341584 306.044080341584 3 0 21 33 585
vector 126 World.node[67].appl.middleware.ExampleService proof_size ETV
vector 127 World.node[67].appl.middleware.ExampleService proof_requested ETV
127	15296 32 5629176 5629176 316.072817905573 316.072817905573 1 28 28 28 784
126	15328 32 5629176 5629176 316.072817905573 316.072817905573 1 15 15 15 225
vector 128 World.node[76].appl.middleware.ExampleService proof_size ETV
vector 129 World.node[76].appl.middleware.ExampleService proof_requested ETV
vector 130 World.node[78].appl.middleware.ExampleService proof_size ETV
vector 131 World.node[78].appl.middleware.ExampleService proof_requested ETV
vector 132 World.node[69].appl.middleware.ExampleService proof_size ETV
vector 133 World.node[69].appl.middleware.ExampleService proof_requested ETV
101	15807 64 3550789 5323957 246.039000809914 306.039000809914 2 25 33 58 1714
100	15871 64 3550789 5323957 246.039000809914 306.039000809914 2 11 16 27 377
69	15935 93 1874165 5294016 185.056850419263 305.056850419263 3 28 33 92 2834
68	16028 91 1874165 5294016 185.056850419263 305.056850419263 3 9 17 35 451
vector 134 World.node[74].appl.middleware.ExampleService proof_size ETV
vector 135 World.node[74].appl.middleware.ExampleService proof_requested ETV
41	16268 123 719075 5360307 127.035739619005 307.035739619005 4 23 33 113 3267
40	16391 122 719075 5360307 127.035739619005 307.035739619005 4 7 15 45 543
vector 136 World.node[72].appl.middleware.ExampleService proof_size ETV
vector 137 World.node[72].appl.middleware.ExampleService proof_requested ETV
vector 138 World.node[73].appl.middleware.ExampleService proof_size ETV
vector 139 World.node[73].appl.middleware.ExampleService proof_requested ETV
vector 140 World.node[70].appl.middleware.ExampleService proof_size ETV
vector 141 World.node[70].appl.middleware.ExampleService proof_requested ETV
83	16960 93 2675384 6366231 217.021304171113 337.021304171113 3 31 39 106 3778
82	17053 91 2675384 6366231 217.021304171113 337.021304171113 3 5 13 26 258
vector 142 World.node[75].appl.middleware.ExampleService proof_size ETV
vector 143 World.node[75].appl.middleware.ExampleService proof_requested ETV
vector 144 World.node[86].appl.middleware.ExampleService proof_size ETV
vector 145 World.node[86].appl.middleware.ExampleService proof_requested ETV
73	17442 93 1969494 5420994 189.024234700389 309.024234700389 3 25 35 91 2811
72	17535 91 1969494 5420994 189.024234700389 309.024234700389 3 0 14 21 245
91	17626 93 3068429 6912808 230.012485762942 350.012485762942 3 20 41 95 3237
90	17719 92 3068429 6912808 230.012485762942 350.012485762942 3 8 22 52 1032
vector 146 World.node[87].appl.middleware.ExampleService proof_size ETV
vector 147 World.node[87].appl.middleware.ExampleService proof_requested ETV
107	17960 64 4094976 5940465 265.031972512603 325.031972512603 2 22 37 59 1853
106	18024 63 4094976 5940465 265.031972512603 325.031972512603 2 6 13 19 205
31	18087 153 355575 6323411 96.006674804725 336.006674804725 5 16 40 149 4795
30	18240 151 355575 6323411 96.006674804725 336.006674804725 5 5 13 46 474
109	18391 64 4115676 5970130 266.064562696824 326.064562696824 2 37 38 75 2813
108	18455 64 4115676 5970130 266.064562696824 326.064562696824 2 14 23 37 725
75	18519 93 2235758 5762689 200.063984042802 320.063984042802 3 22 38 96 3224
74	18612 91 2235758 5762689 200.063984042802 320.063984042802 3 7 11 27 251
vector 148 World.node[90].appl.middleware.ExampleService proof_size ETV
vector 149 World.node[90].appl.middleware.ExampleService proof_requested ETV
vector 150 World.node[88].appl.middleware.ExampleService proof_size ETV
vector 151 World.node[88].appl.middleware.ExampleService proof_requested ETV
95	19001 93 3344487 7236045 239.024395681592 359.024395681592 3 31 42 106 3814
94	19094 91 3344487 7236045 239.024395681592 359.024395681592 3 7 14 29 309
vector 152 World.node[82].appl.middleware.ExampleService proof_size ETV
vector 153 World.node[82].appl.middleware.ExampleService proof_requested ETV
vector 154 World.node[80].appl.middleware.ExampleService proof_size ETV
vector 155 World.node[80].appl.middleware.ExampleService proof_requested ETV
vector 156 World.node[91].appl.middleware.ExampleService proof_size ETV
vector 157 World.node[91].appl.middleware.ExampleService proof_requested ETV
vector 158 World.node[85].appl.middleware.ExampleService proof_size ETV
vector 159 World.node[85].appl.middleware.ExampleService proof_requested ETV
99	19781 93 3459374 7390502 243.063796279929 363.063796279929 3 34 39 109 3973
98	19874 92 3459374 7390502 243.063796279929 363.063796279929 3 0 17 31 485
vector 160 World.node[77].appl.middleware.ExampleService proof_size ETV
vector 161 World.node[77].appl.middleware.ExampleService proof_requested ETV
87	20115 93 2810641 6582726 222.033434145339 342.033434145339 3 20 41 93 3105
86	20208 92 2810641 6582726 222.033434145339 342.033434145339 3 9 13 35 419
vector 162 World.node[84].appl.middleware.ExampleService proof_size ETV
vector 163 World.node[84].appl.middleware.ExampleService proof_requested ETV
vector 164 World.node[96].appl.middleware.ExampleService proof_size ETV
vector 165 World.node[96].appl.middleware.ExampleService proof_requested ETV
63	20598 120 1707710 7214048 178.05535413695 358.05535413695 4 27 40 131 4385
62	20718 117 1707710 7214048 178.05535413695 358.05535413695 4 0 17 26 354
117	20835 64 4673965 6666183 284.030023407936 344.030023407936 2 35 39 74 2746
116	20899 62 4673965 6666183 284.030023407936 344.030023407936 2 0 7 7 49
81	20961 93 2552498 6208744 213.018041500566 333.018041500566 3 20 40 93 3089
80	21054 92 2552498 6208744 213.018041500566 333.018041500566 3 7 14 32 366
vector 166 World.node[81].appl.middleware.ExampleService proof_size ETV
vector 167 World.node[81].appl.middleware.ExampleService proof_requested ETV
vector 168 World.node[83].appl.middleware.ExampleService proof_size ETV
vector 169 World.node[83].appl.middleware.ExampleService proof_requested ETV
vector 170 World.node[89].appl.middleware.ExampleService proof_size ETV
vector 171 World.node[89].appl.middleware.ExampleService proof_requested ETV
vector 172 World.node[92].appl.middleware.ExampleService proof_size ETV
vector 173 World.node[92].appl.middleware.ExampleService proof_requested ETV
137	21742 32 6710037 6710037 345.071050836891 345.071050836891 1 38 38 38 1444
136	21774 32 6710037 6710037 345.071050836891 345.071050836891 1 18 18 18 324
45	21806 154 747443 7643177 129.020839908812 369.020839908812 5 24 37 163 5427
44	21960 153 747443 7643177 129.020839908812 369.020839908812 5 9 17 60 756
97	22113 93 3376892 7274688 240.039140413189 360.039140413189 3 29 39 100 3386
96	22206 93 3376892 7274688 240.039140413189 360.039140413189 3 13 16 43 621
89	22299 124 3006638 9265648 228.059621361969 408.059621361969 4 28 43 145 5403
88	22423 123 3006638 9265648 228.059621361969 408.059621361969 4 5 20 59 1011
vector 174 World.node[93].appl.middleware.ExampleService proof_size ETV
vector 175 World.node[93].appl.middleware.ExampleService proof_requested ETV
167	22695 31 8395652 8395652 387.00323847062 387.00323847062 1 41 41 41 1681
166	22726 30 8395652 8395652 387.00323847062 387.00323847062 1 9 9 9 81
vector 176 World.node[102].appl.middleware.ExampleService proof_size ETV
vector 177 World.node[102].appl.middleware.ExampleService proof_requested ETV
vector 178 World.node[94].appl.middleware.ExampleService proof_size ETV
vector 179 World.node[94].appl.middleware.ExampleService proof_requested ETV
131	23056 64 5762169 8111973 320.057095540082 380.057095540082 2 24 40 64 2176
130	23120 63 5762169 8111973 320.057095540082 380.057095540082 2 5 13 18 194
vector 180 World.node[104].appl.middleware.ExampleService proof_size ETV
vector 181 World.node[104].appl.middleware.ExampleService proof_requested ETV
vector 182 World.node[98].appl.middleware.ExampleService proof_size ETV
vector 183 World.node[98].appl.middleware.ExampleService proof_requested ETV
vector 184 World.node[100].appl.middleware.ExampleService proof_size ETV
vector 185 World.node[100].appl.middleware.ExampleService proof_requested ETV
vector 186 World.node[106].appl.middleware.ExampleService proof_size ETV
vector 187 World.node[106].appl.middleware.ExampleService proof_requested ETV
vector 188 World.node[95].appl.middleware.ExampleService proof_size ETV
vector 189 World.node[95].appl.middleware.ExampleService proof_requested ETV
77	23934 124 2286538 8198588 202.010761212977 382.010761212977 4 28 42 140 5000
76	24058 121 2286538 8198588 202.010761212977 382.010761212977 4 3 11 28 228
123	24179 96 5200490 9871023 302.032925258181 422.032925258181 3 33 41 112 4214
122	24275 94 5200490 9871023 302.032925258181 422.032925258181 3 2 11 22 206
vector 190 World.node[97].appl.middleware.ExampleService proof_size ETV
vector 191 World.node[97].appl.middleware.ExampleService proof_requested ETV
vector 192 World.node[101].appl.middleware.ExampleService proof_size ETV
vector 193 World.node[101].appl.middleware.ExampleService proof_requested ETV
vector 194 World.node[99].appl.middleware.ExampleService proof_size ETV
vector 195 World.node[99].appl.middleware.ExampleService proof_requested ETV
113	24818 96 4585099 8994119 281.052050189604 401.052050189604 3 32 44 116 4560
112	24914 95 4585099 8994119 281.052050189604 401.052050189604 3 9 14 34 398
vector 196 World.node[103].appl.middleware.ExampleService proof_size ETV
vector 197 World.node[103].appl.middleware.ExampleService proof_requested ETV
115	25160 96 4672261 9109500 284.015544928401 404.015544928401 3 36 44 120 4832
114	25256 93 4672261 9109500 284.015544928401 404.015544928401 3 4 9 22 178
135	25349 64 6632539 9081912 343.051616792474 403.051616792474 2 42 44 86 3700
134	25413 64 6632539 9081912 343.051616792474 403.051616792474 2 12 16 28 400
vector 198 World.node[109].appl.middleware.ExampleService proof_size ETV
vector 199 World.node[109].appl.middleware.ExampleService proof_requested ETV
181	25628 32 9867946 9867946 422.007607488683 422.007607488683 1 38 38 38 1444
180	25660 31 9867946 9867946 422.007607488683 422.007607488683 1 9 9 9 81
129	25691 97 5735141 10700682 319.016162785818 439.016162785818 3 36 46 121 4933
128	25788 95 5735141 10700682 319.016162785818 439.016162785818 3 0 17 18 290
vector 200 World.node[108].appl.middleware.ExampleService proof_size ETV
vector 201 World.node[108].appl.middleware.ExampleService proof_requested ETV
143	26034 64 6961617 9398491 351.008806981915 411.008806981915 2 41 43 84 3530
142	26098 63 6961617 9398491 351.008806981915 411.008806981915 2 1 10 11 101
vector 202 World.node[119].appl.middleware.ExampleService proof_size ETV
vector 203 World.node[119].appl.middleware.ExampleService proof_requested ETV
vector 204 World.node[117].appl.middleware.ExampleService proof_size ETV
vector 205 World.node[117].appl.middleware.ExampleService proof_requested ETV
vector 206 World.node[105].appl.middleware.ExampleService proof_size ETV
vector 207 World.node[105].appl.middleware.ExampleService proof_requested ETV
119	26614 96 4802219 9256673 288.008327701362 408.008327701362 3 31 41 109 4011
118	26710 95 4802219 9256673 288.008327701362 408.008327701362 3 9 24 52 1018
125	26805 97 5565094 10470685 314.019079531892 434.019079531892 3 37 45 122 4994
124	26902 96 5565094 10470685 314.019079531892 434.019079531892 3 6 20 42 692
vector 208 World.node[116].appl.middleware.ExampleService proof_size ETV
vector 209 World.node[116].appl.middleware.ExampleService proof_requested ETV
159	27149 65 7551095 10128183 367.033554464299 427.033554464299 2 21 40 61 2041
158	27214 65 7551095 10128183 367.033554464299 427.033554464299 2 12 15 27 369
133	27279 97 5944055 10989129 325.085248043807 445.085248043807 3 34 42 117 4601
132	27376 95 5944055 10989129 325.085248043807 445.085248043807 3 5 14 25 257
105	27471 129 3701518 10335452 251.033545335592 431.033545335592 4 30 39 135 4601
104	27600 128 3701518 10335452 251.033545335592 431.033545335592 4 2 21 45 689
169	27728 65 8522500 11196451 390.011621047882 450.011621047882 2 39 48 87 3825
168	27793 65 8522500 11196451 390.011621047882 450.011621047882 2 11 13 24 290
179	27858 32 9832811 9832811 421.023060377385 421.023060377385 1 35 35 35 1225
178	27890 32 9832811 9832811 421.023060377385 421.023060377385 1 11 11 11 121
vector 210 World.node[114].appl.middleware.ExampleService proof_size ETV
vector 211 World.node[114].appl.middleware.ExampleService proof_requested ETV
vector 212 World.node[107].appl.middleware.ExampleService proof_size ETV
vector 213 World.node[107].appl.middleware.ExampleService proof_requested ETV
vector 214 World.node[115].appl.middleware.ExampleService proof_size ETV
vector 215 World.node[115].appl.middleware.ExampleService proof_requested ETV
vector 216 World.node[113].appl.middleware.ExampleService proof_size ETV
vector 217 World.node[113].appl.middleware.ExampleService proof_requested ETV
vector 218 World.node[120].appl.middleware.ExampleService proof_size ETV
vector 219 World.node[120].appl.middleware.ExampleService proof_requested ETV
vector 220 World.node[111].appl.middleware.ExampleService proof_size ETV
vector 221 World.node[111].appl.middleware.ExampleService proof_requested ETV
vector 222 World.node[110].appl.middleware.ExampleService proof_size ETV
vector 223 World.node[110].appl.middleware.ExampleService proof_requested ETV
197	28979 33 11020734 11020734 446.035654673539 446.035654673539 1 42 42 42 1764
196	29012 33 11020734 11020734 446.035654673539 446.035654673539 1 16 16 16 256
207	29045 33 11946329 11946329 463.079409852764 463.079409852764 1 46 46 46 2116
206	29078 33 11946329 11946329 463.079409852764 463.079409852764 1 19 19 19 361
221	29111 33 13010229 13010229 484.082087538764 484.082087538764 1 30 30 30 900
220	29144 32 13010229 13010229 484.082087538764 484.082087538764 1 7 7 7 49
vector 224 World.node[112].appl.middleware.ExampleService proof_size ETV
vector 225 World.node[112].appl.middleware.ExampleService proof_requested ETV
103	29327 162 3681164 13269581 250.088872010075 490.088872010075 5 34 45 199 8031
102	29489 160 3681164 13269581 250.088872010075 490.088872010075 5 0 17 49 801
vector 226 World.node[125].appl.middleware.ExampleService proof_size ETV
vector 227 World.node[125].appl.middleware.ExampleService proof_requested ETV
201	29800 33 11735291 11735291 460.031496675359 460.031496675359 1 40 40 40 1600
200	29833 33 11735291 11735291 460.031496675359 460.031496675359 1 17 17 17 289
vector 228 World.node[123].appl.middleware.ExampleService proof_size ETV
vector 229 World.node[123].appl.middleware.ExampleService proof_requested ETV
147	30017 97 7030368 12456718 353.059789160104 473.059789160104 3 40 44 126 5300
146	30114 95 7030368 12456718 353.059789160104 473.059789160104 3 9 30 48 1062
vector 230 World.node[126].appl.middleware.ExampleService proof_size ETV
vector 231 World.node[126].appl.middleware.ExampleService proof_requested ETV
151	30360 97 7422412 13001964 364.004027332226 484.004027332226 3 30 44 112 4280
150	30457 94 7422412 13001964 364.004027332226 484.004027332226 3 4 5 13 57
193	30551 66 10700001 13599200 439.012358166394 499.012358166394 2 28 40 68 2384
192	30617 64 10700001 13599200 439.012358166394 499.012358166394 2 2 8 10 68
vector 232 World.node[127].appl.middleware.ExampleService proof_size ETV
vector 233 World.node[127].appl.middleware.ExampleService proof_requested ETV
139	30832 97 6711119 12054570 345.076713030855 465.076713030855 3 35 44 123 5097
138	30929 96 6711119 12054570 345.076713030855 465.076713030855 3 1 35 49 1395
vector 234 World.node[129].appl.middleware.ExampleService proof_size ETV
vector 235 World.node[129].appl.middleware.ExampleService proof_requested ETV
225	31176 33 13330794 13330794 492.026875631511 492.026875631511 1 28 28 28 784
224	31209 33 13330794 13330794 492.026875631511 492.026875631511 1 13 13 13 169
vector 236 World.node[124].appl.middleware.ExampleService proof_size ETV
vector 237 World.node[124].appl.middleware.ExampleService proof_requested ETV
vector 238 World.node[118].appl.middleware.ExampleService proof_size ETV
vector 239 World.node[118].appl.middleware.ExampleService proof_requested ETV
vector 240 World.node[128].appl.middleware.ExampleService proof_size ETV
vector 241 World.node[128].appl.middleware.ExampleService proof_requested ETV
153	31695 98 7467952 13042527 365.065759401536 485.065759401536 3 29 38 105 3729
152	31793 98 7467952 13042527 365.065759401536 485.065759401536 3 13 25 59 1235
213	31891 33 12572163 12572163 475.094917991175 475.094917991175 1 32 32 32 1024
212	31924 32 12572163 12572163 475.094917991175 475.094917991175 1 0 0 0 0
vector 242 World.node[132].appl.middleware.ExampleService proof_size ETV
vector 243 World.node[132].appl.middleware.ExampleService proof_requested ETV
121	32107 129 5098421 12707980 298.024964376562 478.024964376562 4 34 40 145 5281
120	32236 128 5098421 12707980 298.024964376562 478.024964376562 4 8 15 47 579
161	32364 98 7682517 13265028 370.018133906997 490.018133906997 3 39 43 124 5134
160	32462 98 7682517 13265028 370.018133906997 490.018133906997 3 12 20 44 688
vector 244 World.node[122].appl.middleware.ExampleService proof_size ETV
vector 245 World.node[122].appl.middleware.ExampleService proof_requested ETV
vector 246 World.node[121].appl.middleware.ExampleService proof_size ETV
vector 247 World.node[121].appl.middleware.ExampleService proof_requested ETV
vector 248 World.node[133].appl.middleware.ExampleService proof_size ETV
vector 249 World.node[133].appl.middleware.ExampleService proof_requested ETV
239	33013 33 14107465 14107465 512.090241292166 512.090241292166 1 35 35 35 1225
238	33046 32 14107465 14107465 512.090241292166 512.090241292166 1 7 7 7 49
247	33078 33 14665618 14665618 527.044930934487 527.044930934487 1 32 32 32 1024
246	33111 32 14665618 14665618 527.044930934487 527.044930934487 1 7 7 7 49
79	33143 188 2331652 13787763 204.028348132037 504.028348132037 6 29 46 221 8355
78	33331 188 2331652 13787763 204.028348132037 504.028348132037 6 14 21 99 1667
vector 250 World.node[130].appl.middleware.ExampleService proof_size ETV
vector 251 World.node[130].appl.middleware.ExampleService proof_requested ETV
187	33670 66 10297244 13269676 430.088918866985 490.088918866985 2 40 45 85 3625
186	33736 65 10297244 13269676 430.088918866985 490.088918866985 2 0 18 18 324
237	33801 31 14063988 14063988 511.0131416691 511.0131416691 1 39 39 39 1521
236	33832 31 14063988 14063988 511.0131416691 511.0131416691 1 10 10 10 100
145	33863 130 6961620 14818427 351.010955298087 531.010955298087 4 34 46 162 6634
144	33993 129 6961620 14818427 351.010955298087 531.010955298087 4 6 25 68 1370
171	34122 98 8668663 14144889 393.081388932979 513.081388932979 3 39 49 131 5771
170	34220 98 8668663 14144889 393.081388932979 513.081388932979 3 13 20 49 825
177	34318 98 9753227 15092835 419.087026485731 539.087026485731 3 37 44 124 5154
176	34416 97 9753227 15092835 419.087026485731 539.087026485731 3 8 19 39 569
157	34513 131 7511507 15335772 366.072250472568 546.072250472568 4 15 42 129 4589
156	34644 129 7511507 15335772 366.072250472568 546.072250472568 4 0 16 35 477
vector 252 World.node[134].appl.middleware.ExampleService proof_size ETV
vector 253 World.node[134].appl.middleware.ExampleService proof_requested ETV
vector 254 World.node[140].appl.middleware.ExampleService proof_size ETV
vector 255 World.node[140].appl.middleware.ExampleService proof_requested ETV
245	35075 33 14636786 14636786 526.058161356021 526.058161356021 1 34 34 34 1156
244	35108 33 14636786 14636786 526.058161356021 526.058161356021 1 10 10 10 100
203	35141 66 11862275 14482967 462.018608383974 522.018608383974 2 27 38 65 2173
202	35207 65 11862275 14482967 462.018608383974 522.018608383974 2 9 19 28 442
vector 256 World.node[135].appl.middleware.ExampleService proof_size ETV
vector 257 World.node[135].appl.middleware.ExampleService proof_requested ETV
155	35423 127 7469047 15293662 365.07974291821 545.07974291821 4 36 40 152 5784
154	35550 126 7469047 15293662 365.07974291821 545.07974291821 4 2 15 44 594
vector 258 World.node[141].appl.middleware.ExampleService proof_size ETV
vector 259 World.node[141].appl.middleware.ExampleService proof_requested ETV
vector 260 World.node[136].appl.middleware.ExampleService proof_size ETV
vector 261 World.node[136].appl.middleware.ExampleService proof_requested ETV
185	35978 99 10195209 15403315 428.072833957826 548.072833957826 3 38 45 127 5405
184	36077 99 10195209 15403315 428.072833957826 548.072833957826 3 12 13 37 457
vector 262 World.node[131].appl.middleware.ExampleService proof_size ETV
vector 263 World.node[131].appl.middleware.ExampleService proof_requested ETV
233	36327 66 13788330 15975614 504.035765742743 564.035765742743 2 27 32 59 1753
232	36393 65 13788330 15975614 504.035765742743 564.035765742743 2 7 12 19 193
231	36458 66 13640295 15852560 500.071300121094 560.071300121094 2 33 39 72 2610
230	36524 65 13640295 15852560 500.071300121094 560.071300121094 2 9 10 19 181
vector 264 World.node[137].appl.middleware.ExampleService proof_size ETV
vector 265 World.node[137].appl.middleware.ExampleService proof_requested ETV
205	36740 66 11945314 14525468 463.061752547696 523.061752547696 2 42 49 91 4165
204	36806 65 11945314 14525468 463.061752547696 523.061752547696 2 8 28 36 848
vector 266 World.node[138].appl.middleware.ExampleService proof_size ETV
vector 267 World.node[138].appl.middleware.ExampleService proof_requested ETV
257	37022 33 15770531 15770531 558.048804368498 558.048804368498 1 39 39 39 1521
256	37055 32 15770531 15770531 558.048804368498 558.048804368498 1 0 0 0 0
vector 268 World.node[144].appl.middleware.ExampleService proof_size ETV
vector 269 World.node[144].appl.middleware.ExampleService proof_requested ETV
vector 270 World.node[148].appl.middleware.ExampleService proof_size ETV
vector 271 World.node[148].appl.middleware.ExampleService proof_requested ETV
vector 272 World.node[139].appl.middleware.ExampleService proof_size ETV
vector 273 World.node[139].appl.middleware.ExampleService proof_requested ETV
223	37540 66 13091921 15332401 486.027396094776 546.027396094776 2 36 39 75 2817
222	37606 65 13091921 15332401 486.027396094776 546.027396094776 2 0 18 18 324
vector 274 World.node[142].appl.middleware.ExampleService proof_size ETV
vector 275 World.node[142].appl.middleware.ExampleService proof_requested ETV
vector 276 World.node[151].appl.middleware.ExampleService proof_size ETV
vector 277 World.node[151].appl.middleware.ExampleService proof_requested ETV
163	37973 131 8027735 15769969 378.045012159878 558.045012159878 4 27 43 143 5247
162	38104 130 8027735 15769969 378.045012159878 558.045012159878 4 7 18 50 686
195	38234 99 10842212 15915255 442.017712146626 562.017712146626 3 30 42 111 4185
194	38333 98 10842212 15915255 442.017712146626 562.017712146626 3 7 14 34 414
149	38431 163 7273025 17297271 360.021093294187 600.021093294187 5 19 42 168 5974
148	38594 163 7273025 17297271 360.021093294187 600.021093294187 5 11 21 74 1150
vector 278 World.node[149].appl.middleware.ExampleService proof_size ETV
vector 279 World.node[149].appl.middleware.ExampleService proof_requested ETV
vector 280 World.node[150].appl.middleware.ExampleService proof_size ETV
vector 281 World.node[150].appl.middleware.ExampleService proof_requested ETV
219	39059 99 12843789 17338508 481.031019206019 601.031019206019 3 20 40 99 3521
218	39158 99 12843789 17338508 481.031019206019 601.031019206019 3 10 18 43 649
277	39257 33 17132619 17132619 596.027003821684 596.027003821684 1 27 27 27 729
276	39290 33 17132619 17132619 596.027003821684 596.027003821684 1 14 14 14 196
175	39323 131 9472856 16983960 413.006059438642 593.006059438642 4 37 44 166 6922
174	39454 129 9472856 16983960 413.006059438642 593.006059438642 4 5 27 56 1074
vector 282 World.node[143].appl.middleware.ExampleService proof_size ETV
vector 283 World.node[143].appl.middleware.ExampleService proof_requested ETV
165	39734 131 8062575 15805480 379.007949408074 559.007949408074 4 36 45 160 6446
164	39865 127 8062575 15805480 379.007949408074 559.007949408074 4 4 8 23 141
191	39992 96 10616999 15727266 437.01056322467 557.01056322467 3 36 44 123 5081
190	40088 96 10616999 15727266 437.01056322467 557.01056322467 3 11 18 43 641
189	40184 99 10390316 15546018 432.051291850558 552.051291850558 3 38 39 115 4409
188	40283 99 10390316 15546018 432.051291850558 552.051291850558 3 14 17 48 774
vector 284 World.node[145].appl.middleware.ExampleService proof_size ETV
vector 285 World.node[145].appl.middleware.ExampleService proof_requested ETV
183	40533 132 10079572 17552711 426.020064269006 606.020064269006 4 34 42 157 6201
182	40665 132 10079572 17552711 426.020064269006 606.020064269006 4 12 23 72 1382
vector 286 World.node[155].appl.middleware.ExampleService proof_size ETV
vector 287 World.node[155].appl.middleware.ExampleService proof_requested ETV
209	40948 99 12052276 16676240 465.038618855621 585.038618855621 3 36 44 122 4996
208	41047 99 12052276 16676240 465.038618855621 585.038618855621 3 13 17 46 714
281	41146 33 17518688 17518688 605.079103053128 605.079103053128 1 36 36 36 1296
280	41179 33 17518688 17518688 605.079103053128 605.079103053128 1 23 23 23 529
251	41212 66 15021161 17169335 537.003851215309 597.003851215309 2 37 38 75 2813
250	41278 66 15021161 17169335 537.003851215309 597.003851215309 2 14 25 39 821
vector 288 World.node[146].appl.middleware.ExampleService proof_size ETV
vector 289 World.node[146].appl.middleware.ExampleService proof_requested ETV
vector 290 World.node[153].appl.middleware.ExampleService proof_size ETV
vector 291 World.node[153].appl.middleware.ExampleService proof_requested ETV
235	41646 99 13947542 18173686 508.103293901985 628.003293901985 3 24 36 94 3028
234	41745 97 13947542 18173686 508.103293901985 628.003293901985 3 2 15 21 245
vector 292 World.node[160].appl.middleware.ExampleService proof_size ETV
vector 293 World.node[160].appl.middleware.ExampleService proof_requested ETV
vector 294 World.node[147].appl.middleware.ExampleService proof_size ETV
vector 295 World.node[147].appl.middleware.ExampleService proof_requested ETV
173	42144 131 8706454 16319232 394.036389610753 574.036389610753 4 38 43 158 6258
172	42275 130 8706454 16319232 394.036389610753 574.036389610753 4 2 18 48 738
249	42405 66 14863431 16947336 532.084899580549 592.084899580549 2 36 40 76 2896
248	42471 66 14863431 16947336 532.084899580549 592.084899580549 2 13 14 27 365
vector 296 World.node[158].appl.middleware.ExampleService proof_size ETV
vector 297 World.node[158].appl.middleware.ExampleService proof_requested ETV
141	42688 163 6757214 16706423 346.042796521448 586.042796521448 5 26 48 183 6949
140	42851 160 6757214 16706423 346.042796521448 586.042796521448 5 1 18 47 699
vector 298 World.node[156].appl.middleware.ExampleService proof_size ETV
vector 299 World.node[156].appl.middleware.ExampleService proof_requested ETV
vector 300 World.node[152].appl.middleware.ExampleService proof_size ETV
vector 301 World.node[152].appl.middleware.ExampleService proof_requested ETV
vector 302 World.node[161].appl.middleware.ExampleService proof_size ETV
vector 303 World.node[161].appl.middleware.ExampleService proof_requested ETV
271	43464 66 16948448 18893782 592.093876184127 652.093876184127 2 33 40 73 2689
270	43530 64 16948448 18893782 592.093876184127 652.093876184127 2 5 7 12 74
217	43594 99 12659170 17173487 477.026442653406 597.026442653406 3 38 41 117 4569
216	43693 98 12659170 17173487 477.026442653406 597.026442653406 3 0 18 35 613
vector 304 World.node[157].appl.middleware.ExampleService proof_size ETV
vector 305 World.node[157].appl.middleware.ExampleService proof_requested ETV
vector 306 World.node[168].appl.middleware.ExampleService proof_size ETV
vector 307 World.node[168].appl.middleware.ExampleService proof_requested ETV
259	44093 66 15880835 18016632 561.014775019558 621.014775019558 2 32 38 70 2468
258	44159 66 15880835 18016632 561.014775019558 621.014775019558 2 12 19 31 505
vector 308 World.node[162].appl.middleware.ExampleService proof_size ETV
vector 309 World.node[162].appl.middleware.ExampleService proof_requested ETV
vector 310 World.node[164].appl.middleware.ExampleService proof_size ETV
vector 311 World.node[164].appl.middleware.ExampleService proof_requested ETV
vector 312 World.node[159].appl.middleware.ExampleService proof_size ETV
vector 313 World.node[159].appl.middleware.ExampleService proof_requested ETV
vector 314 World.node[171].appl.middleware.ExampleService proof_size ETV
vector 315 World.node[171].appl.middleware.ExampleService proof_requested ETV
vector 316 World.node[163].appl.middleware.ExampleService proof_size ETV
vector 317 World.node[163].appl.middleware.ExampleService proof_requested ETV
303	44980 33 18844308 18844308 651.001970562572 651.001970562572 1 35 35 35 1225
302	45013 33 18844308 18844308 651.001970562572 651.001970562572 1 14 14 14 196
241	45046 99 14214924 18371014 515.076553589525 635.076553589525 3 31 38 105 3701
240	45145 99 14214924 18371014 515.076553589525 635.076553589525 3 13 18 45 689
273	45244 66 17055007 18971336 594.093860120676 654.093860120676 2 34 37 71 2525
272	45310 64 17055007 18971336 594.093860120676 654.093860120676 2 8 9 17 145
vector 318 World.node[169].appl.middleware.ExampleService proof_size ETV
vector 319 World.node[169].appl.middleware.ExampleService proof_requested ETV
vector 320 World.node[166].appl.middleware.ExampleService proof_size ETV
vector 321 World.node[166].appl.middleware.ExampleService proof_requested ETV
vector 322 World.node[165].appl.middleware.ExampleService proof_size ETV
vector 323 World.node[165].appl.middleware.ExampleService proof_requested ETV
229	45827 132 13492565 19679993 496.009014325542 676.009014325542 4 29 41 136 4718
228	45959 128 13492565 19679993 496.009014325542 676.009014325542 4 0 9 19 133
211	46087 128 12556929 18995002 475.00811653221 655.00811653221 4 27 41 141 5075
210	46215 127 12556929 18995002 475.00811653221 655.00811653221 4 4 19 49 733
vector 324 World.node[167].appl.middleware.ExampleService proof_size ETV
vector 325 World.node[167].appl.middleware.ExampleService proof_requested ETV
265	46493 66 16385543 18399778 576.075455382955 636.075455382955 2 34 34 68 2312
264	46559 65 16385543 18399778 576.075455382955 636.075455382955 2 9 12 21 225
vector 326 World.node[172].appl.middleware.ExampleService proof_size ETV
vector 327 World.node[172].appl.middleware.ExampleService proof_requested ETV
301	46775 33 18748806 18748806 648.068926237756 648.068926237756 1 32 32 32 1024
300	46808 33 18748806 18748806 648.068926237756 648.068926237756 1 11 11 11 121
227	46841 132 13454234 19653333 495.047789281141 675.047789281141 4 33 38 144 5198
226	46973 131 13454234 19653333 495.047789281141 675.047789281141 4 8 13 42 454
295	47104 66 18272720 20344609 632.061937133432 692.061937133432 2 34 43 77 3005
294	47170 65 18272720 20344609 632.061937133432 692.061937133432 2 7 15 22 274
299	47235 33 18691026 18691026 646.028815240203 646.028815240203 1 32 32 32 1024
298	47268 33 18691026 18691026 646.028815240203 646.028815240203 1 10 10 10 100
vector 328 World.node[180].appl.middleware.ExampleService proof_size ETV
vector 329 World.node[180].appl.middleware.ExampleService proof_requested ETV
313	47452 33 19342299 19342299 666.025800621812 666.025800621812 1 37 37 37 1369
312	47485 33 19342299 19342299 666.025800621812 666.025800621812 1 10 10 10 100
vector 330 World.node[170].appl.middleware.ExampleService proof_size ETV
vector 331 World.node[170].appl.middleware.ExampleService proof_requested ETV
291	47669 66 18199062 20211365 629.031260062195 689.031260062195 2 32 42 74 2788
290	47735 65 18199062 20211365 629.031260062195 689.031260062195 2 9 13 22 250
253	47800 99 15546300 19552977 552.053485908872 672.053485908872 3 27 39 105 3771
252	47899 97 15546300 19552977 552.053485908872 672.053485908872 3 3 13 20 194
vector 332 World.node[176].appl.middleware.ExampleService proof_size ETV
vector 333 World.node[176].appl.middleware.ExampleService proof_requested ETV
vector 334 World.node[174].appl.middleware.ExampleService proof_size ETV
vector 335 World.node[174].appl.middleware.ExampleService proof_requested ETV
199	48298 165 11253753 20305828 451.040299094585 691.040299094585 5 33 44 192 7452
198	48463 163 11253753 20305828 451.040299094585 691.040299094585 5 3 16 52 636
vector 336 World.node[173].appl.middleware.ExampleService proof_size ETV
vector 337 World.node[173].appl.middleware.ExampleService proof_requested ETV
261	48777 99 15920157 19910966 562.068216728722 682.068216728722 3 19 36 89 2813
260	48876 99 15920157 19910966 562.068216728722 682.068216728722 3 12 20 44 688
vector 338 World.node[179].appl.middleware.ExampleService proof_size ETV
vector 339 World.node[179].appl.middleware.ExampleService proof_requested ETV
vector 340 World.node[177].appl.middleware.ExampleService proof_size ETV
vector 341 World.node[177].appl.middleware.ExampleService proof_requested ETV
275	49277 99 17098114 21162211 595.047604455403 715.047604455403 3 29 37 103 3579
274	49376 98 17098114 21162211 595.047604455403 715.047604455403 3 0 22 34 628
vector 342 World.node[187].appl.middleware.ExampleService proof_size ETV
vector 343 World.node[187].appl.middleware.ExampleService proof_requested ETV
307	49625 66 19020449 21182272 656.035118151829 716.035118151829 2 33 34 67 2245
306	49691 64 19020449 21182272 656.035118151829 716.035118151829 2 1 7 8 50
vector 344 World.node[182].appl.middleware.ExampleService proof_size ETV
vector 345 World.node[182].appl.middleware.ExampleService proof_requested ETV
vector 346 World.node[186].appl.middleware.ExampleService proof_size ETV
vector 347 World.node[186].appl.middleware.ExampleService proof_requested ETV
267	50057 99 16648239 20809692 584.082186068641 704.082186068641 3 26 39 99 3353
266	50156 97 16648239 20809692 584.082186068641 704.082186068641 3 5 12 22 194
vector 348 World.node[175].appl.middleware.ExampleService proof_size ETV
vector 349 World.node[175].appl.middleware.ExampleService proof_requested ETV
vector 350 World.node[178].appl.middleware.ExampleService proof_size ETV
vector 351 World.node[178].appl.middleware.ExampleService proof_requested ETV
vector 352 World.node[185].appl.middleware.ExampleService proof_size ETV
vector 353 World.node[185].appl.middleware.ExampleService proof_requested ETV
255	50706 132 15585199 21829245 553.062653605407 733.062653605407 4 16 37 121 3939
254	50838 131 15585199 21829245 553.062653605407 733.062653605407 4 8 21 55 861
vector 354 World.node[181].appl.middleware.ExampleService proof_size ETV
vector 355 World.node[181].appl.middleware.ExampleService proof_requested ETV
289	51120 66 18180138 20172879 628.060293464921 688.060293464921 2 35 41 76 2906
288	51186 65 18180138 20172879 628.060293464921 688.060293464921 2 6 33 39 1125
vector 356 World.node[184].appl.middleware.ExampleService proof_size ETV
vector 357 World.node[184].appl.middleware.ExampleService proof_requested ETV
vector 358 World.node[190].appl.middleware.ExampleService proof_size ETV
vector 359 World.node[190].appl.middleware.ExampleService proof_requested ETV
215	51553 165 12606233 21185690 476.084706770349 716.084706770349 5 30 43 185 6933
214	51718 162 12606233 21185690 476.084706770349 716.084706770349 5 1 17 41 479
319	51880 66 19827989 22105107 680.013083138084 740.013083138084 2 34 39 73 2677
318	51946 64 19827989 22105107 680.013083138084 740.013083138084 2 4 5 9 41
vector 360 World.node[191].appl.middleware.ExampleService proof_size ETV
vector 361 World.node[191].appl.middleware.ExampleService proof_requested ETV
vector 362 World.node[194].appl.middleware.ExampleService proof_size ETV
vector 363 World.node[194].appl.middleware.ExampleService proof_requested ETV
vector 364 World.node[183].appl.middleware.ExampleService proof_size ETV
vector 365 World.node[183].appl.middleware.ExampleService proof_requested ETV
vector 366 World.node[192].appl.middleware.ExampleService proof_size ETV
vector 367 World.node[192].appl.middleware.ExampleService proof_requested ETV
vector 368 World.node[193].appl.middleware.ExampleService proof_size ETV
vector 369 World.node[193].appl.middleware.ExampleService proof_requested ETV
305	52765 66 19000642 21165112 655.088042245642 715.088042245642 2 36 37 73 2665
304	52831 66 19000642 21165112 655.088042245642 715.088042245642 2 10 15 25 325
vector 370 World.node[196].appl.middleware.ExampleService proof_size ETV
vector 371 World.node[196].appl.middleware.ExampleService proof_requested ETV
243	53048 155 14363858 22892293 519.0165537294 759.0165537294 5 35 41 192 7404
242	53203 154 14363858 22892293 519.0165537294 759.0165537294 5 9 14 58 694
311	53357 66 19314078 21499765 665.075586443464 725.075586443464 2 35 37 72 2594
310	53423 64 19314078 21499765 665.075586443464 725.075586443464 2 0 1 1 1
vector 372 World.node[188].appl.middleware.ExampleService proof_size ETV
vector 373 World.node[188].appl.middleware.ExampleService proof_requested ETV
283	53638 99 17675925 21663709 609.068028487614 729.068028487614 3 35 37 107 3819
282	53737 99 17675925 21663709 609.068028487614 729.068028487614 3 16 22 54 996
vector 374 World.node[189].appl.middleware.ExampleService proof_size ETV
vector 375 World.node[189].appl.middleware.ExampleService proof_requested ETV
337	53987 66 21071005 23385596 712.065633475501 772.065633475501 2 24 35 59 1801
336	54053 64 21071005 23385596 712.065633475501 772.065633475501 2 1 4 5 17
vector 376 World.node[200].appl.middleware.ExampleService proof_size ETV
vector 377 World.node[200].appl.middleware.ExampleService proof_requested ETV
359	54268 33 22693481 22693481 754.071082677785 754.071082677785 1 38 38 38 1444
358	54301 33 22693481 22693481 754.071082677785 754.071082677785 1 23 23 23 529
341	54334 66 21330951 23782716 721.067984760157 781.067984760157 2 38 42 80 3208
340	54400 65 21330951 23782716 721.067984760157 781.067984760157 2 0 20 20 400
297	54465 99 18427817 22816483 637.070987743349 757.070987743349 3 32 41 109 4001
296	54564 97 18427817 22816483 637.070987743349 757.070987743349 3 0 17 25 353
vector 378 World.node[201].appl.middleware.ExampleService proof_size ETV
vector 379 World.node[201].appl.middleware.ExampleService proof_requested ETV
vector 380 World.node[202].appl.middleware.ExampleService proof_size ETV
vector 381 World.node[202].appl.middleware.ExampleService proof_requested ETV
vector 382 World.node[197].appl.middleware.ExampleService proof_size ETV
vector 383 World.node[197].appl.middleware.ExampleService proof_requested ETV
vector 384 World.node[203].appl.middleware.ExampleService proof_size ETV
vector 385 World.node[203].appl.middleware.ExampleService proof_requested ETV
269	55265 132 16937303 23382183 592.023890205449 772.023890205449 4 33 42 148 5518
268	55397 130 16937303 23382183 592.023890205449 772.023890205449 4 7 13 40 426
vector 386 World.node[198].appl.middleware.ExampleService proof_size ETV
vector 387 World.node[198].appl.middleware.ExampleService proof_requested ETV
309	55678 99 19173466 23781804 661.057521266979 781.057521266979 3 34 41 111 4133
308	55777 98 19173466 23781804 661.057521266979 781.057521266979 3 9 13 33 371
363	55875 33 23079092 23079092 764.014664714853 764.014664714853 1 26 26 26 676
362	55908 32 23079092 23079092 764.014664714853 764.014664714853 1 8 8 8 64
vector 388 World.node[204].appl.middleware.ExampleService proof_size ETV
vector 389 World.node[204].appl.middleware.ExampleService proof_requested ETV
vector 390 World.node[209].appl.middleware.ExampleService proof_size ETV
vector 391 World.node[209].appl.middleware.ExampleService proof_requested ETV
315	56242 99 19380917 24040918 667.037158145988 787.037158145988 3 16 40 85 2697
314	56341 98 19380917 24040918 667.037158145988 787.037158145988 3 7 17 39 563
325	56439 99 20387572 24987925 693.071858684882 813.071858684882 3 40 42 122 4964
324	56538 97 20387572 24987925 693.071858684882 813.071858684882 3 0 27 33 765
vector 392 World.node[195].appl.middleware.ExampleService proof_size ETV
vector 393 World.node[195].appl.middleware.ExampleService proof_requested ETV
vector 394 World.node[208].appl.middleware.ExampleService proof_size ETV
vector 395 World.node[208].appl.middleware.ExampleService proof_requested ETV
263	56937 165 16115196 24819054 568.091242758953 808.091242758953 5 33 44 192 7452
262	57102 163 16115196 24819054 568.091242758953 808.091242758953 5 2 26 71 1461
377	57265 33 23872383 23872383 783.088317100937 783.088317100937 1 40 40 40 1600
376	57298 33 23872383 23872383 783.088317100937 783.088317100937 1 17 17 17 289
vector 396 World.node[205].appl.middleware.ExampleService proof_size ETV
vector 397 World.node[205].appl.middleware.ExampleService proof_requested ETV
vector 398 World.node[212].appl.middleware.ExampleService proof_size ETV
vector 399 World.node[212].appl.middleware.ExampleService proof_requested ETV
vector 400 World.node[199].appl.middleware.ExampleService proof_size ETV
vector 401 World.node[199].appl.middleware.ExampleService proof_requested ETV
349	57784 66 21953697 24370971 736.016016593715 796.016016593715 2 38 39 77 2965
348	57850 66 21953697 24370971 736.016016593715 796.016016593715 2 11 23 34 650
vector 402 World.node[211].appl.middleware.ExampleService proof_size ETV
vector 403 World.node[211].appl.middleware.ExampleService proof_requested ETV
vector 404 World.node[207].appl.middleware.ExampleService proof_size ETV
vector 405 World.node[207].appl.middleware.ExampleService proof_requested ETV
vector 406 World.node[206].appl.middleware.ExampleService proof_size ETV
vector 407 World.node[206].appl.middleware.ExampleService proof_requested ETV
335	58369 99 21043322 25826841 711.078998592752 831.078998592752 3 39 42 120 4806
334	58468 99 21043322 25826841 711.078998592752 831.078998592752 3 12 18 42 612
331	58567 99 20837615 25567443 705.036094834912 825.036094834912 3 34 42 116 4520
330	58666 99 20837615 25567443 705.036094834912 825.036094834912 3 10 20 41 621
383	58765 33 24510704 24510704 800.010024858685 800.010024858685 1 40 40 40 1600
382	58798 33 24510704 24510704 800.010024858685 800.010024858685 1 22 22 22 484
vector 408 World.node[214].appl.middleware.ExampleService proof_size ETV
vector 409 World.node[214].appl.middleware.ExampleService proof_requested ETV
339	58982 99 21273834 26132720 719.072948127985 839.072948127985 3 26 36 93 2933
338	59081 96 21273834 26132720 719.072948127985 839.072948127985 3 4 5 14 66
387	59177 33 24735398 24735398 806.017550954758 806.017550954758 1 41 41 41 1681
386	59210 33 24735398 24735398 806.017550954758 806.017550954758 1 10 10 10 100
355	59243 66 22391608 24773018 747.060199605394 807.060199605394 2 36 41 77 2977
354	59309 66 22391608 24773018 747.060199605394 807.060199605394 2 15 16 31 481
375	59375 66 23728226 26168276 780.013548490126 840.013548490126 2 31 42 73 2725
374	59441 65 23728226 26168276 780.013548490126 840.013548490126 2 8 14 22 260
vector 410 World.node[210].appl.middleware.ExampleService proof_size ETV
vector 411 World.node[210].appl.middleware.ExampleService proof_requested ETV
327	59657 99 20560498 25182636 697.052359528327 817.052359528327 3 34 42 117 4601
326	59756 99 20560498 25182636 697.052359528327 817.052359528327 3 13 22 51 909
345	59855 99 21700311 26585822 730.011454826943 850.011454826943 3 30 44 114 4436
344	59954 99 21700311 26585822 730.011454826943 850.011454826943 3 17 22 58 1134
389	60053 33 24872458 24872458 810.020575090032 810.020575090032 1 38 38 38 1444
388	60086 32 24872458 24872458 810.020575090032 810.020575090032 1 8 8 8 64
vector 412 World.node[217].appl.middleware.ExampleService proof_size ETV
vector 413 World.node[217].appl.middleware.ExampleService proof_requested ETV
285	60269 165 17780156 26667279 612.020628556749 852.020628556749 5 37 45 201 8119
284	60434 164 17780156 26667279 612.020628556749 852.020628556749 5 9 17 65 879
vector 414 World.node[213].appl.middleware.ExampleService proof_size ETV
vector 415 World.node[213].appl.middleware.ExampleService proof_requested ETV
vector 416 World.node[220].appl.middleware.ExampleService proof_size ETV
vector 417 World.node[220].appl.middleware.ExampleService proof_requested ETV
vector 418 World.node[221].appl.middleware.ExampleService proof_size ETV
vector 419 World.node[221].appl.middleware.ExampleService proof_requested ETV
287	61051 165 17909293 26868503 617.007371602277 857.007371602277 5 20 43 173 6291
286	61216 162 17909293 26868503 617.007371602277 857.007371602277 5 4 24 64 1210
vector 420 World.node[224].appl.middleware.ExampleService proof_size ETV
vector 421 World.node[224].appl.middleware.ExampleService proof_requested ETV
321	61529 132 19830761 27012920 680.043861259753 860.043861259753 4 36 44 159 6357
320	61661 130 19830761 27012920 680.043861259753 860.043861259753 4 2 18 41 561
401	61791 33 25615702 25615702 826.021372600598 826.021372600598 1 42 42 42 1764
400	61824 33 25615702 25615702 826.021372600598 826.021372600598 1 13 13 13 169
vector 422 World.node[216].appl.middleware.ExampleService proof_size ETV
vector 423 World.node[216].appl.middleware.ExampleService proof_requested ETV
329	62008 132 20677845 27921965 700.140570681868 880.040570681868 4 32 44 156 6168
328	62140 131 20677845 27921965 700.140570681868 880.040570681868 4 0 16 43 621
vector 424 World.node[226].appl.middleware.ExampleService proof_size ETV
vector 425 World.node[226].appl.middleware.ExampleService proof_requested ETV
vector 426 World.node[215].appl.middleware.ExampleService proof_size ETV
vector 427 World.node[215].appl.middleware.ExampleService proof_requested ETV
423	62573 33 28480674 28480674 892.043943701359 892.043943701359 1 40 40 40 1600
422	62606 33 28480674 28480674 892.043943701359 892.043943701359 1 23 23 23 529
353	62639 96 21992340 26878673 737.06326081627 857.06326081627 3 40 43 124 5130
352	62735 94 21992340 26878673 737.06326081627 857.06326081627 3 0 25 26 626
393	62829 66 25177540 27761648 817.037838828471 877.037838828471 2 40 42 82 3364
392	62895 66 25177540 27761648 817.037838828471 877.037838828471 2 10 17 27 389
367	62961 99 23118648 28174234 765.099151714658 885.099151714658 3 31 41 104 3666
366	63060 98 23118648 28174234 765.099151714658 885.099151714658 3 4 15 30 362
vector 428 World.node[218].appl.middleware.ExampleService proof_size ETV
vector 429 World.node[218].appl.middleware.ExampleService proof_requested ETV
323	63309 132 19981096 27203059 684.038331040251 864.038331040251 4 33 42 153 5913
322	63441 131 19981096 27203059 684.038331040251 864.038331040251 4 8 15 49 629
vector 430 World.node[229].appl.middleware.ExampleService proof_size ETV
vector 431 World.node[229].appl.middleware.ExampleService proof_requested ETV
293	63723 165 18251495 27483503 631.077994465875 871.077994465875 5 22 41 173 6223
292	63888 160 18251495 27483503 631.077994465875 871.077994465875 5 0 5 8 28
vector 432 World.node[228].appl.middleware.ExampleService proof_size ETV
vector 433 World.node[228].appl.middleware.ExampleService proof_requested ETV
373	64199 99 23552746 28613366 776.074477464543 896.074477464543 3 40 44 126 5300
372	64298 97 23552746 28613366 776.074477464543 896.074477464543 3 3 21 33 531
361	64395 99 22963563 27963393 761.031772296783 881.031772296783 3 25 44 110 4242
360	64494 99 22963563 27963393 761.031772296783 881.031772296783 3 14 18 50 844
399	64593 66 25562774 28162933 825.007758987392 885.007758987392 2 42 43 85 3613
398	64659 66 25562774 28162933 825.007758987392 885.007758987392 2 22 32 54 1508
vector 434 World.node[237].appl.middleware.ExampleService proof_size ETV
vector 435 World.node[237].appl.middleware.ExampleService proof_requested ETV
317	64876 165 19381982 29001646 667.051738939574 907.051738939574 5 31 43 189 7223
316	65041 165 19381982 29001646 667.051738939574 907.051738939574 5 10 27 97 2151
vector 436 World.node[223].appl.middleware.ExampleService proof_size ETV
vector 437 World.node[223].appl.middleware.ExampleService proof_requested ETV
vector 438 World.node[231].appl.middleware.ExampleService proof_size ETV
vector 439 World.node[231].appl.middleware.ExampleService proof_requested ETV
vector 440 World.node[227].appl.middleware.ExampleService proof_size ETV
vector 441 World.node[227].appl.middleware.ExampleService proof_requested ETV
vector 442 World.node[235].appl.middleware.ExampleService proof_size ETV
vector 443 World.node[235].appl.middleware.ExampleService proof_requested ETV
343	65810 132 21490854 28919352 725.004048553901 905.004048553901 4 25 42 140 5066
342	65942 131 21490854 28919352 725.004048553901 905.004048553901 4 6 28 61 1185
vector 444 World.node[239].appl.middleware.ExampleService proof_size ETV
vector 445 World.node[239].appl.middleware.ExampleService proof_requested ETV
397	66224 99 25523454 30326347 824.035642249859 944.035642249859 3 38 44 124 5144
396	66323 97 25523454 30326347 824.035642249859 944.035642249859 3 1 11 20 186
vector 446 World.node[243].appl.middleware.ExampleService proof_size ETV
vector 447 World.node[243].appl.middleware.ExampleService proof_requested ETV
409	66571 66 26494211 29030340 848.004722615331 908.004722615331 2 34 42 76 2920
408	66637 64 26494211 29030340 848.004722615331 908.004722615331 2 5 5 10 50
vector 448 World.node[230].appl.middleware.ExampleService proof_size ETV
vector 449 World.node[230].appl.middleware.ExampleService proof_requested ETV
365	66852 132 23080578 30326051 764.024411308602 944.024411308602 4 33 46 160 6510
364	66984 130 23080578 30326051 764.024411308602 944.024411308602 4 7 31 69 1603
357	67114 132 22563938 29847589 751.033165840013 931.033165840013 4 33 41 154 5972
356	67246 130 22563938 29847589 751.033165840013 931.033165840013 4 7 11 36 334
vector 450 World.node[232].appl.middleware.ExampleService proof_size ETV
vector 451 World.node[232].appl.middleware.ExampleService proof_requested ETV
279	67527 198 17515311 28926199 605.046776468051 905.046776468051 6 26 44 214 7894
278	67725 197 17515311 28926199 605.046776468051 905.046776468051 6 0 18 74 1134
381	67922 99 24485396 29474371 799.008514181362 919.008514181362 3 18 40 97 3445
380	68021 96 24485396 29474371 799.008514181362 919.008514181362 3 6 7 19 121
vector 452 World.node[240].appl.middleware.ExampleService proof_size ETV
vector 453 World.node[240].appl.middleware.ExampleService proof_requested ETV
425	68268 66 28515563 30694541 893.099733851524 953.099733851524 2 31 39 70 2482
424	68334 64 28515563 30694541 893.099733851524 953.099733851524 2 0 1 1 1
441	68398 33 29726325 29726325 927.044069860457 927.044069860457 1 29 29 29 841
440	68431 33 29726325 29726325 927.044069860457 927.044069860457 1 11 11 11 121
vector 454 World.node[238].appl.middleware.ExampleService proof_size ETV
vector 455 World.node[238].appl.middleware.ExampleService proof_requested ETV
347	68615 132 21827918 29232675 733.051893577352 913.051893577352 4 33 45 157 6235
346	68747 132 21827918 29232675 733.051893577352 913.051893577352 4 15 19 67 1131
vector 456 World.node[234].appl.middleware.ExampleService proof_size ETV
vector 457 World.node[234].appl.middleware.ExampleService proof_requested ETV
vector 458 World.node[236].appl.middleware.ExampleService proof_size ETV
vector 459 World.node[236].appl.middleware.ExampleService proof_requested ETV
vector 460 World.node[241].appl.middleware.ExampleService proof_size ETV
vector 461 World.node[241].appl.middleware.ExampleService proof_requested ETV
vector 462 World.node[242].appl.middleware.ExampleService proof_size ETV
vector 463 World.node[242].appl.middleware.ExampleService proof_requested ETV
403	69483 96 25682490 30471098 828.00491199526 948.00491199526 3 43 44 130 5634
402	69579 96 25682490 30471098 828.00491199526 948.00491199526 3 14 26 59 1233
385	69675 99 24550541 29535718 801.048178768787 921.048178768787 3 16 42 100 3784
384	69774 98 24550541 29535718 801.048178768787 921.048178768787 3 6 16 37 517
vector 464 World.node[248].appl.middleware.ExampleService proof_size ETV
vector 465 World.node[248].appl.middleware.ExampleService proof_requested ETV
391	70023 99 25095613 29993132 815.053781583766 935.053781583766 3 35 42 118 4670
390	70122 99 25095613 29993132 815.053781583766 935.053781583766 3 11 19 42 626
455	70221 33 31185952 31185952 967.075604148256 967.075604148256 1 37 37 37 1369
454	70254 33 31185952 31185952 967.075604148256 967.075604148256 1 20 20 20 400
429	70287 66 28881489 31065641 904.060556568834 964.060556568834 2 24 39 63 2097
428	70353 66 28881489 31065641 904.060556568834 964.060556568834 2 10 18 28 424
vector 466 World.node[247].appl.middleware.ExampleService proof_size ETV
vector 467 World.node[247].appl.middleware.ExampleService proof_requested ETV
461	70570 33 31376511 31376511 972.091031122091 972.091031122091 1 29 29 29 841
460	70603 33 31376511 31376511 972.091031122091 972.091031122091 1 16 16 16 256
371	70636 132 23388673 30650570 772.095475768764 952.095475768764 4 25 42 149 5753
370	70768 130 23388673 30650570 772.095475768764 952.095475768764 4 0 21 43 691
vector 468 World.node[244].appl.middleware.ExampleService proof_size ETV
vector 469 World.node[244].appl.middleware.ExampleService proof_requested ETV
351	71049 165 21992067 31532336 737.060952686775 977.060952686775 5 29 43 186 7064
350	71214 163 21992067 31532336 737.060952686775 977.060952686775 5 0 17 47 739
379	71377 132 24411152 31534920 797.093214009167 977.093214009167 4 20 42 140 5224
378	71509 130 24411152 31534920 797.093214009167 977.093214009167 4 0 18 29 425
395	71639 99 25186354 30074233 817.088786446792 937.088786446792 3 33 44 119 4789
394	71738 98 25186354 30074233 817.088786446792 937.088786446792 3 1 26 40 846
vector 470 World.node[245].appl.middleware.ExampleService proof_size ETV
vector 471 World.node[245].appl.middleware.ExampleService proof_requested ETV
vector 472 World.node[251].appl.middleware.ExampleService proof_size ETV
vector 473 World.node[251].appl.middleware.ExampleService proof_requested ETV
vector 474 World.node[250].appl.middleware.ExampleService proof_size ETV
vector 475 World.node[250].appl.middleware.ExampleService proof_requested ETV
vector 476 World.node[249].appl.middleware.ExampleService proof_size ETV
vector 477 World.node[249].appl.middleware.ExampleService proof_requested ETV
413	72440 99 27281533 31769518 866.060362574621 986.060362574621 3 35 39 113 4267
412	72539 99 27281533 31769518 866.060362574621 986.060362574621 3 10 13 35 413
439	72638 66 29694041 31767145 926.005533202388 986.005533202388 2 32 33 65 2113
438	72704 64 29694041 31767145 926.005533202388 986.005533202388 2 0 8 8 64
417	72768 99 27705354 32029906 876.036764534097 996.036764534097 3 28 37 101 3449
416	72867 97 27705354 32029906 876.036764534097 996.036764534097 3 0 10 11 101
vector 478 World.node[246].appl.middleware.ExampleService proof_size ETV
vector 479 World.node[246].appl.middleware.ExampleService proof_requested ETV
vector 480 World.node[256].appl.middleware.ExampleService proof_size ETV
vector 481 World.node[256].appl.middleware.ExampleService proof_requested ETV
vector 482 World.node[254].appl.middleware.ExampleService proof_size ETV
vector 483 World.node[254].appl.middleware.ExampleService proof_requested ETV
449	73417 67 30642849 32504082 952.013567385916 1012.013567385916 2 35 39 74 2746
448	73484 65 30642849 32504082 952.013567385916 1012.013567385916 2 8 9 17 145
vector 484 World.node[252].appl.middleware.ExampleService proof_size ETV
vector 485 World.node[252].appl.middleware.ExampleService proof_requested ETV
vector 486 World.node[255].appl.middleware.ExampleService proof_size ETV
vector 487 World.node[255].appl.middleware.ExampleService proof_requested ETV
427	73851 100 28612220 32646051 896.054239943763 1016.054239943763 3 20 38 95 3213
426	73951 99 28612220 32646051 896.054239943763 1016.054239943763 3 4 16 34 468
407	74050 133 25893791 32543176 833.078506411496 1013.078506411496 4 35 41 149 5575
406	74183 132 25893791 32543176 833.078506411496 1013.078506411496 4 2 19 52 858
vector 488 World.node[257].appl.middleware.ExampleService proof_size ETV
vector 489 World.node[257].appl.middleware.ExampleService proof_requested ETV
459	74466 33 31372127 31372127 972.049381307908 972.049381307908 1 34 34 34 1156
458	74499 33 31372127 31372127 972.049381307908 972.049381307908 1 13 13 13 169
415	74532 99 27703215 32028955 876.017377188802 996.017377188802 3 28 41 108 3986
414	74631 98 27703215 32028955 876.017377188802 996.017377188802 3 8 18 38 532
vector 490 World.node[261].appl.middleware.ExampleService proof_size ETV
vector 491 World.node[261].appl.middleware.ExampleService proof_requested ETV
vector 492 World.node[258].appl.middleware.ExampleService proof_size ETV
vector 493 World.node[258].appl.middleware.ExampleService proof_requested ETV
369	75031 166 23148339 32318888 766.036956222611 1006.036956222611 5 30 43 182 6770
368	75197 162 23148339 32318888 766.036956222611 1006.036956222611 5 2 13 36 326
vector 494 World.node[259].appl.middleware.ExampleService proof_size ETV
vector 495 World.node[259].appl.middleware.ExampleService proof_requested ETV
vector 496 World.node[253].appl.middleware.ExampleService proof_size ETV
vector 497 World.node[253].appl.middleware.ExampleService proof_requested ETV
405	75661 125 25856070 32504584 832.0181963888 1012.0181963888 4 30 43 147 5495
404	75786 121 25856070 32504584 832.0181963888 1012.0181963888 4 0 9 21 161
vector 498 World.node[267].appl.middleware.ExampleService proof_size ETV
vector 499 World.node[267].appl.middleware.ExampleService proof_requested ETV
411	76058 133 27206805 33425333 864.063741428358 1044.063741428358 4 16 45 118 4086
410	76191 130 27206805 33425333 864.063741428358 1044.063741428358 4 0 10 22 174
vector 500 World.node[266].appl.middleware.ExampleService proof_size ETV
vector 501 World.node[266].appl.middleware.ExampleService proof_requested ETV
vector 502 World.node[269].appl.middleware.ExampleService proof_size ETV
vector 503 World.node[269].appl.middleware.ExampleService proof_requested ETV
465	76623 67 31479445 33133986 975.083111801324 1035.083111801324 2 12 35 47 1369
464	76690 66 31479445 33133986 975.083111801324 1035.083111801324 2 1 13 14 170
333	76756 199 21039409 32475860 711.018189246231 1011.018189246231 6 26 42 228 8850
332	76955 198 21039409 32475860 711.018189246231 1011.018189246231 6 5 16 74 986
433	77153 100 29263300 33104670 914.012158894097 1034.012158894097 3 30 35 96 3086
432	77253 97 29263300 33104670 914.012158894097 1034.012158894097 3 6 8 21 149
485	77350 33 32702862 32702862 1018.03330028702 1018.03330028702 1 28 28 28 784
484	77383 33 32702862 32702862 1018.03330028702 1018.03330028702 1 16 16 16 256
vector 504 World.node[262].appl.middleware.ExampleService proof_size ETV
vector 505 World.node[262].appl.middleware.ExampleService proof_requested ETV
435	77567 100 29538988 33324695 921.098281544517 1041.098281544517 3 37 41 115 4419
434	77667 99 29538988 33324695 921.098281544517 1041.098281544517 3 8 15 35 433
475	77766 67 32067549 33877840 997.069968219288 1057.069968219288 2 33 37 70 2458
474	77833 66 32067549 33877840 997.069968219288 1057.069968219288 2 2 19 21 365
463	77899 67 31376786 33057430 972.091939973575 1032.091939973575 2 23 35 58 1754
462	77966 66 31376786 33057430 972.091939973575 1032.091939973575 2 6 21 27 477
vector 506 World.node[264].appl.middleware.ExampleService proof_size ETV
vector 507 World.node[264].appl.middleware.ExampleService proof_requested ETV
vector 508 World.node[268].appl.middleware.ExampleService proof_size ETV
vector 509 World.node[268].appl.middleware.ExampleService proof_requested ETV
vector 510 World.node[260].appl.middleware.ExampleService proof_size ETV
vector 511 World.node[260].appl.middleware.ExampleService proof_requested ETV
445	78485 101 30216292 34007139 941.053393172403 1061.053393172403 3 27 38 94 3014
444	78586 101 30216292 34007139 941.053393172403 1061.053393172403 3 11 25 48 890
493	78687 34 33218047 33218047 1038.069440129097 1038.069440129097 1 28 28 28 784
492	78721 34 33218047 33218047 1038.069440129097 1038.069440129097 1 10 10 10 100
vector 512 World.node[272].appl.middleware.ExampleService proof_size ETV
vector 513 World.node[272].appl.middleware.ExampleService proof_requested ETV
453	78906 101 30834382 34428780 957.044758101064 1077.044758101064 3 26 34 92 2856
452	79007 101 30834382 34428780 957.044758101064 1077.044758101064 3 13 13 39 507
vector 514 World.node[265].appl.middleware.ExampleService proof_size ETV
vector 515 World.node[265].appl.middleware.ExampleService proof_requested ETV
431	79259 134 29003634 34703042 907.061917538592 1087.061917538592 4 26 34 117 3461
430	79393 132 29003634 34703042 907.061917538592 1087.061917538592 4 8 13 42 458
487	79525 68 32725429 34466892 1019.040397670725 1079.040397670725 2 29 31 60 1802
486	79593 67 32725429 34466892 1019.040397670725 1079.040397670725 2 8 10 18 164
457	79660 101 31215108 34727010 968.057724861265 1088.057724861265 3 30 37 102 3494
456	79761 101 31215108 34727010 968.057724861265 1088.057724861265 3 10 17 40 558
477	79862 68 32266449 34103221 1004.081856600218 1064.081856600218 2 28 31 59 1745
476	79930 67 32266449 34103221 1004.081856600218 1064.081856600218 2 7 12 19 193
vector 516 World.node[275].appl.middleware.ExampleService proof_size ETV
vector 517 World.node[275].appl.middleware.ExampleService proof_requested ETV
vector 518 World.node[277].appl.middleware.ExampleService proof_size ETV
vector 519 World.node[277].appl.middleware.ExampleService proof_requested ETV
vector 520 World.node[271].appl.middleware.ExampleService proof_size ETV
vector 521 World.node[271].appl.middleware.ExampleService proof_requested ETV
vector 522 World.node[273].appl.middleware.ExampleService proof_size ETV
vector 523 World.node[273].appl.middleware.ExampleService proof_requested ETV
vector 524 World.node[274].appl.middleware.ExampleService proof_size ETV
vector 525 World.node[274].appl.middleware.ExampleService proof_requested ETV
447	80752 95 30571742 34250646 950.0912508148 1070.0912508148 3 31 34 98 3206
446	80847 93 30571742 34250646 950.0912508148 1070.0912508148 3 5 19 33 467
vector 526 World.node[279].appl.middleware.ExampleService proof_size ETV
vector 527 World.node[279].appl.middleware.ExampleService proof_requested ETV
vector 528 World.node[276].appl.middleware.ExampleService proof_size ETV
vector 529 World.node[276].appl.middleware.ExampleService proof_requested ETV
443	81242 130 30150323 35570385 939.05408298329 1119.05408298329 4 27 39 129 4235
442	81372 129 30150323 35570385 939.05408298329 1119.05408298329 4 9 12 43 469
vector 530 World.node[282].appl.middleware.ExampleService proof_size ETV
vector 531 World.node[282].appl.middleware.ExampleService proof_requested ETV
vector 532 World.node[270].appl.middleware.ExampleService proof_size ETV
vector 533 World.node[270].appl.middleware.ExampleService proof_requested ETV
471	81803 101 32034681 35486766 996.062893732777 1116.062893732777 3 25 31 86 2486
470	81904 101 32034681 35486766 996.062893732777 1116.062893732777 3 11 12 34 386
503	82005 68 33882809 35519462 1057.190224147169 1117.090224147169 2 11 32 43 1145
502	82073 67 33882809 35519462 1057.190224147169 1117.090224147169 2 0 17 17 289
vector 534 World.node[281].appl.middleware.ExampleService proof_size ETV
vector 535 World.node[281].appl.middleware.ExampleService proof_requested ETV
vector 536 World.node[287].appl.middleware.ExampleService proof_size ETV
vector 537 World.node[287].appl.middleware.ExampleService proof_requested ETV
vector 538 World.node[288].appl.middleware.ExampleService proof_size ETV
vector 539 World.node[288].appl.middleware.ExampleService proof_requested ETV
vector 540 World.node[289].appl.middleware.ExampleService proof_size ETV
vector 541 World.node[289].appl.middleware.ExampleService proof_requested ETV
501	82744 68 33841677 35487988 1056.084200021974 1116.084200021974 2 28 35 63 2009
500	82812 67 33841677 35487988 1056.084200021974 1116.084200021974 2 0 12 12 144
469	82879 101 31930211 35394690 993.037068329356 1113.037068329356 3 31 35 101 3411
468	82980 100 31930211 35394690 993.037068329356 1113.037068329356 3 7 17 37 507
vector 542 World.node[283].appl.middleware.ExampleService proof_size ETV
vector 543 World.node[283].appl.middleware.ExampleService proof_requested ETV
437	83231 134 29670860 35189958 925.049212110019 1105.049212110019 4 27 37 137 4763
436	83365 132 29670860 35189958 925.049212110019 1105.049212110019 4 6 12 38 388
[...]
1673	296007 108 135335791 143841654 3361.000490995706 3481.000490995706 3 41 57 150 7634
1672	296115 106 135335791 143841654 3361.000490995706 3481.000490995706 3 6 13 28 286
1707	296221 72 139326535 143340633 3414.055754152336 3474.055754152336 2 50 55 105 5525
1706	296293 72 139326535 143340633 3414.055754152336 3474.055754152336 2 10 24 34 676
1717	296365 72 139826294 143898056 3422.010722747119 3482.010722747119 2 38 57 95 4693
1716	296437 71 139826294 143898056 3422.010722747119 3482.010722747119 2 6 12 18 180
1737	296508 36 144322655 144322655 3488.094600366591 3488.094600366591 1 12 12 12 144
1736	296544 35 144322655 144322655 3488.094600366591 3488.094600366591 1 0 0 0 0
vector 1746 World.node[903].appl.middleware.ExampleService proof_size ETV
vector 1747 World.node[903].appl.middleware.ExampleService proof_requested ETV
1651	296732 108 132357937 140902285 3316.023509885208 3436.023509885208 3 45 54 147 7245
1650	296840 107 132357937 140902285 3316.023509885208 3436.023509885208 3 8 17 41 609
1713	296947 72 139717663 143786730 3420.048352731555 3480.048352731555 2 49 52 101 5105
1712	297019 72 139717663 143786730 3420.048352731555 3480.048352731555 2 11 19 30 482
vector 1748 World.node[913].appl.middleware.ExampleService proof_size ETV
vector 1749 World.node[913].appl.middleware.ExampleService proof_requested ETV
1695	297244 72 138221204 142294290 3398.089066996356 3458.089066996356 2 45 50 95 4525
1694	297316 72 138221204 142294290 3398.089066996356 3458.089066996356 2 21 22 43 925
1657	297388 108 132889374 141470800 3325.035947174509 3445.035947174509 3 47 58 158 8382
1656	297496 108 132889374 141470800 3325.035947174509 3445.035947174509 3 12 23 50 898
1679	297604 108 136189208 144719856 3374.013533539278 3494.013533539278 3 44 57 148 7394
1678	297712 108 136189208 144719856 3374.013533539278 3494.013533539278 3 13 28 54 1122
vector 1750 World.node[907].appl.middleware.ExampleService proof_size ETV
vector 1751 World.node[907].appl.middleware.ExampleService proof_requested ETV
vector 1752 World.node[916].appl.middleware.ExampleService proof_size ETV
vector 1753 World.node[916].appl.middleware.ExampleService proof_requested ETV
vector 1754 World.node[918].appl.middleware.ExampleService proof_size ETV
vector 1755 World.node[918].appl.middleware.ExampleService proof_requested ETV
vector 1756 World.node[911].appl.middleware.ExampleService proof_size ETV
vector 1757 World.node[911].appl.middleware.ExampleService proof_requested ETV
1569	298432 216 124306307 141962809 3153.074160157493 3453.074160157493 6 44 60 301 15289
1568	298648 215 124306307 141962809 3153.074160157493 3453.074160157493 6 9 27 105 2031
1653	298863 144 132542529 144973349 3319.005564362416 3499.005564362416 4 41 58 200 10158
1652	299007 142 132542529 144973349 3319.005564362416 3499.005564362416 4 3 12 31 299
vector 1758 World.node[919].appl.middleware.ExampleService proof_size ETV
vector 1759 World.node[919].appl.middleware.ExampleService proof_requested ETV
vector 1760 World.node[909].appl.middleware.ExampleService proof_size ETV
vector 1761 World.node[909].appl.middleware.ExampleService proof_requested ETV
1623	299455 180 129810806 145676897 3274.046004155278 3514.046004155278 5 37 58 243 12039
1622	299635 179 129810806 145676897 3274.046004155278 3514.046004155278 5 1 20 67 1131
1617	299814 180 128768367 144834575 3256.039700520528 3496.039700520528 5 47 54 253 12839
1616	299994 176 128768367 144834575 3256.039700520528 3496.039700520528 5 1 22 39 603
1739	300170 35 144376819 144376819 3489.04743597121 3489.04743597121 1 52 52 52 2704
1738	300205 35 144376819 144376819 3489.04743597121 3489.04743597121 1 22 22 22 484
vector 1762 World.node[921].appl.middleware.ExampleService proof_size ETV
vector 1763 World.node[921].appl.middleware.ExampleService proof_requested ETV
vector 1764 World.node[912].appl.middleware.ExampleService proof_size ETV
vector 1765 World.node[912].appl.middleware.ExampleService proof_requested ETV
1481	300546 360 116164779 146102709 2982.092815981829 3522.092815981829 10 38 60 452 20856
1480	300906 358 116164779 146102709 2982.092815981829 3522.092815981829 10 9 25 142 2276
1567	301264 252 124218682 145505022 3151.012769579608 3511.012769579608 7 42 59 343 17015
1566	301516 250 124218682 145505022 3151.012769579608 3511.012769579608 7 7 24 86 1272
1665	301766 144 133555531 145730288 3335.022392981383 3515.022392981383 4 42 51 187 8791
1664	301910 142 133555531 145730288 3335.022392981383 3515.022392981383 4 2 15 33 375
1703	302052 72 139217502 143206237 3412.031328915223 3472.031328915223 2 50 56 106 5636
1702	302124 72 139217502 143206237 3412.031328915223 3472.031328915223 2 15 21 36 666
1591	302196 216 126302110 145191458 3204.045688696438 3504.045688696438 6 29 55 271 12659
1590	302412 216 126302110 145191458 3204.045688696438 3504.045688696438 6 10 23 107 2003
vector 1766 World.node[920].appl.middleware.ExampleService proof_size ETV
vector 1767 World.node[920].appl.middleware.ExampleService proof_requested ETV
1681	302781 108 136200471 144733899 3374.088298474392 3494.088298474392 3 22 53 123 5597
1680	302889 105 136200471 144733899 3374.088298474392 3494.088298474392 3 0 1 1 1
vector 1768 World.node[914].appl.middleware.ExampleService proof_size ETV
vector 1769 World.node[914].appl.middleware.ExampleService proof_requested ETV
vector 1770 World.node[915].appl.middleware.ExampleService proof_size ETV
vector 1771 World.node[915].appl.middleware.ExampleService proof_requested ETV
vector 1772 World.node[923].appl.middleware.ExampleService proof_size ETV
vector 1773 World.node[923].appl.middleware.ExampleService proof_requested ETV
1751	303453 36 145296324 145296324 3506.086344098765 3506.086344098765 1 48 48 48 2304
1750	303489 35 145296324 145296324 3506.086344098765 3506.086344098765 1 8 8 8 64
vector 1774 World.node[927].appl.middleware.ExampleService proof_size ETV
vector 1775 World.node[927].appl.middleware.ExampleService proof_requested ETV
vector 1776 World.node[917].appl.middleware.ExampleService proof_size ETV
vector 1777 World.node[917].appl.middleware.ExampleService proof_requested ETV
vector 1778 World.node[930].appl.middleware.ExampleService proof_size ETV
vector 1779 World.node[930].appl.middleware.ExampleService proof_requested ETV
vector 1780 World.node[925].appl.middleware.ExampleService proof_size ETV
vector 1781 World.node[925].appl.middleware.ExampleService proof_requested ETV
vector 1782 World.node[926].appl.middleware.ExampleService proof_size ETV
vector 1783 World.node[926].appl.middleware.ExampleService proof_requested ETV
1733	304289 72 143722409 146868372 3479.014886169066 3539.014886169066 2 45 56 101 5161
1732	304361 72 143722409 146868372 3479.014886169066 3539.014886169066 2 14 19 33 557
1683	304433 144 136531267 147850730 3378.084964323067 3558.084964323067 4 43 50 182 8310
1682	304577 144 136531267 147850730 3378.084964323067 3558.084964323067 4 10 18 53 749
vector 1784 World.node[929].appl.middleware.ExampleService proof_size ETV
vector 1785 World.node[929].appl.middleware.ExampleService proof_requested ETV
1691	304874 108 138035927 145776547 3396.014287081663 3516.014287081663 3 44 57 147 7301
1690	304982 107 138035927 145776547 3396.014287081663 3516.014287081663 3 0 27 46 1090
vector 1786 World.node[924].appl.middleware.ExampleService proof_size ETV
vector 1787 World.node[924].appl.middleware.ExampleService proof_requested ETV
vector 1788 World.node[922].appl.middleware.ExampleService proof_size ETV
vector 1789 World.node[922].appl.middleware.ExampleService proof_requested ETV
1711	305395 108 139508962 146779335 3417.067278016545 3537.067278016545 3 34 58 147 7545
1710	305503 106 139508962 146779335 3417.067278016545 3537.067278016545 3 0 14 15 197
1723	305609 105 140978870 147787723 3437.08433246566 3557.08433246566 3 47 53 149 7419
1722	305714 105 140978870 147787723 3437.08433246566 3557.08433246566 3 13 30 59 1325
1743	305819 72 144459821 147387861 3490.080336111248 3550.080336111248 2 42 46 88 3880
1742	305891 71 144459821 147387861 3490.080336111248 3550.080336111248 2 0 19 19 361
1631	305962 180 130229083 146041911 3281.057430051197 3521.057430051197 5 32 57 249 12811
1630	306142 176 130229083 146041911 3281.057430051197 3521.057430051197 5 0 38 47 1509
vector 1790 World.node[928].appl.middleware.ExampleService proof_size ETV
vector 1791 World.node[928].appl.middleware.ExampleService proof_requested ETV
1667	306471 144 133711973 145831861 3337.049122602143 3517.049122602143 4 47 60 215 11691
1666	306615 141 133711973 145831861 3337.049122602143 3517.049122602143 4 1 14 22 222
1765	306756 36 146141649 146141649 3523.014555477141 3523.014555477141 1 42 42 42 1764
1764	306792 35 146141649 146141649 3523.014555477141 3523.014555477141 1 7 7 7 49
1701	306827 108 138699575 146187958 3404.057588588446 3524.057588588446 3 46 58 152 7784
1700	306935 108 138699575 146187958 3404.057588588446 3524.057588588446 3 14 29 65 1521
1785	307043 36 148301036 148301036 3566.034358177986 3566.034358177986 1 50 50 50 2500
1784	307079 36 148301036 148301036 3566.034358177986 3566.034358177986 1 21 21 21 441
vector 1792 World.node[935].appl.middleware.ExampleService proof_size ETV
vector 1793 World.node[935].appl.middleware.ExampleService proof_requested ETV
vector 1794 World.node[931].appl.middleware.ExampleService proof_size ETV
vector 1795 World.node[931].appl.middleware.ExampleService proof_requested ETV
vector 1796 World.node[932].appl.middleware.ExampleService proof_size ETV
vector 1797 World.node[932].appl.middleware.ExampleService proof_requested ETV
1583	307574 252 125879837 147612518 3194.058694547322 3554.058694547322 7 44 56 353 17909
1582	307826 250 125879837 147612518 3194.058694547322 3554.058694547322 7 1 19 81 1191
1777	308076 36 147733057 147733057 3556.016852752259 3556.016852752259 1 31 31 31 961
1776	308112 35 147733057 147733057 3556.016852752259 3556.016852752259 1 7 7 7 49
1745	308147 72 144460960 147389299 3490.086981565156 3550.086981565156 2 38 46 84 3560
1744	308219 72 144460960 147389299 3490.086981565156 3550.086981565156 2 16 19 35 617
vector 1798 World.node[934].appl.middleware.ExampleService proof_size ETV
vector 1799 World.node[934].appl.middleware.ExampleService proof_requested ETV
vector 1800 World.node[933].appl.middleware.ExampleService proof_size ETV
vector 1801 World.node[933].appl.middleware.ExampleService proof_requested ETV
vector 1802 World.node[937].appl.middleware.ExampleService proof_size ETV
vector 1803 World.node[937].appl.middleware.ExampleService proof_requested ETV
1587	308750 252 126114883 147938424 3200.031858111126 3560.031858111126 7 43 56 355 18111
1586	309002 248 126114883 147938424 3200.031858111126 3560.031858111126 7 0 13 47 541
vector 1804 World.node[939].appl.middleware.ExampleService proof_size ETV
vector 1805 World.node[939].appl.middleware.ExampleService proof_requested ETV
vector 1806 World.node[936].appl.middleware.ExampleService proof_size ETV
vector 1807 World.node[936].appl.middleware.ExampleService proof_requested ETV
1721	309556 108 140822485 147668356 3435.024878489319 3555.024878489319 3 44 45 134 5986
1720	309664 108 140822485 147668356 3435.024878489319 3555.024878489319 3 13 19 46 726
1731	309772 108 143216587 149431230 3472.092934132228 3592.092934132228 3 43 57 145 7123
1730	309880 106 143216587 149431230 3472.092934132228 3592.092934132228 3 0 14 14 196
1749	309986 72 144778803 147669804 3495.042101402255 3555.042101402255 2 44 47 91 4145
1748	310058 72 144778803 147669804 3495.042101402255 3555.042101402255 2 13 21 34 610
vector 1808 World.node[940].appl.middleware.ExampleService proof_size ETV
vector 1809 World.node[940].appl.middleware.ExampleService proof_requested ETV
vector 1810 World.node[943].appl.middleware.ExampleService proof_size ETV
vector 1811 World.node[943].appl.middleware.ExampleService proof_requested ETV
1725	310436 144 141232392 150644773 3441.041507114843 3621.041507114843 4 35 54 184 8654
1724	310580 144 141232392 150644773 3441.041507114843 3621.041507114843 4 11 20 66 1138
1783	310724 36 148165348 148165348 3564.000286786165 3564.000286786165 1 49 49 49 2401
1782	310760 36 148165348 148165348 3564.000286786165 3564.000286786165 1 15 15 15 225
1633	310796 216 130233775 149033256 3281.099140464514 3581.099140464514 6 37 60 289 14321
1632	311012 214 130233775 149033256 3281.099140464514 3581.099140464514 6 0 17 61 937
1781	311226 70 148101843 150710725 3563.01265098236 3623.01265098236 2 29 50 79 3341
1780	311296 70 148101843 150710725 3563.01265098236 3623.01265098236 2 11 18 29 445
vector 1812 World.node[938].appl.middleware.ExampleService proof_size ETV
vector 1813 World.node[938].appl.middleware.ExampleService proof_requested ETV
1619	311519 252 129505865 150948481 3269.057847575517 3629.057847575517 7 40 59 338 16600
1618	311771 252 129505865 150948481 3269.057847575517 3629.057847575517 7 14 25 138 2840
1807	312023 36 150125490 150125490 3609.084096477227 3609.084096477227 1 39 39 39 1521
1806	312059 36 150125490 150125490 3609.084096477227 3609.084096477227 1 24 24 24 576
1747	312095 108 144678509 150327449 3493.097531079384 3613.097531079384 3 32 48 125 5353
1746	312203 108 144678509 150327449 3493.097531079384 3613.097531079384 3 12 22 55 1069
vector 1814 World.node[941].appl.middleware.ExampleService proof_size ETV
vector 1815 World.node[941].appl.middleware.ExampleService proof_requested ETV
1771	312464 72 146964235 149783668 3541.088271440403 3601.088271440403 2 32 45 77 3049
1770	312536 71 146964235 149783668 3541.088271440403 3601.088271440403 2 9 12 21 225
1767	312607 72 146685288 149555568 3535.038826326281 3595.038826326281 2 44 45 89 3961
1766	312679 71 146685288 149555568 3535.038826326281 3595.038826326281 2 9 22 31 565
vector 1816 World.node[942].appl.middleware.ExampleService proof_size ETV
vector 1817 World.node[942].appl.middleware.ExampleService proof_requested ETV
1773	312903 72 146993813 149812109 3542.058357350179 3602.058357350179 2 37 44 81 3305
1772	312975 71 146993813 149812109 3542.058357350179 3602.058357350179 2 7 10 17 149
1801	313046 72 149623600 151634933 3597.023668514029 3657.023668514029 2 34 44 78 3092
1800	313118 70 149623600 151634933 3597.023668514029 3657.023668514029 2 8 9 17 145
1761	313188 105 145572424 151048313 3512.09561049568 3632.09561049568 3 39 50 137 6325
1760	313293 102 145572424 151048313 3512.09561049568 3632.09561049568 3 0 1 1 1
1597	313395 288 126888823 151180162 3217.009166236781 3637.009166236781 8 31 57 363 17071
1596	313683 283 126888823 151180162 3217.009166236781 3637.009166236781 8 3 12 61 547
1735	313966 144 143847781 151729571 3481.037109596189 3661.037109596189 4 30 52 171 7565
1734	314110 140 143847781 151729571 3481.037109596189 3661.037109596189 4 0 2 5 9
1787	314250 70 148422883 150920505 3568.07739680605 3628.07739680605 2 37 38 75 2813
1786	314320 69 148422883 150920505 3568.07739680605 3628.07739680605 2 1 20 21 401
1779	314389 108 147846675 152067372 3558.052531653503 3678.052531653503 3 25 41 97 3267
1778	314497 107 147846675 152067372 3558.052531653503 3678.052531653503 3 7 12 29 293
1689	314604 180 137944955 151133229 3395.044330079085 3635.044330079085 5 36 52 230 10734
1688	314784 180 137944955 151133229 3395.044330079085 3635.044330079085 5 14 23 88 1592
1775	314964 108 147612875 152002012 3554.063513954706 3674.063513954706 3 23 45 112 4490
1774	315072 106 147612875 152002012 3554.063513954706 3674.063513954706 3 1 17 27 371
1813	315178 72 150919665 152219477 3628.073195221182 3688.073195221182 2 24 37 61 1945
1812	315250 72 150919665 152219477 3628.073195221182 3688.073195221182 2 15 25 40 850
1797	315322 72 149065194 151313788 3582.055312694889 3642.055312694889 2 35 39 74 2746
1796	315394 72 149065194 151313788 3582.055312694889 3642.055312694889 2 13 16 29 425
1817	315466 72 151382405 152428591 3645.074949197867 3705.074949197867 2 13 34 47 1325
1816	315538 71 151382405 152428591 3645.074949197867 3705.074949197867 2 3 14 17 205
1795	315609 108 149027253 152385482 3581.040469115786 3701.040469115786 3 19 41 86 2718
1794	315717 106 149027253 152385482 3581.040469115786 3701.040469115786 3 2 10 16 120
1741	315823 144 144381008 151905882 3489.083471398824 3669.083471398824 4 32 51 174 7770
1740	315967 144 144381008 151905882 3489.083471398824 3669.083471398824 4 17 21 75 1415
1719	316111 180 140576449 151968124 3432.066880592052 3672.066880592052 5 30 53 213 9343
1718	316291 179 140576449 151968124 3432.066880592052 3672.066880592052 5 8 18 66 924
1811	316470 72 150684060 152126985 3622.060273409449 3682.060273409449 2 31 37 68 2330
1810	316542 70 150684060 152126985 3622.060273409449 3682.060273409449 2 1 7 8 50
1793	316612 108 149001635 152376969 3580.087543495838 3700.087543495838 3 25 43 103 3699
1792	316720 106 149001635 152376969 3580.087543495838 3700.087543495838 3 1 13 16 174
1755	316826 144 145339919 152208789 3507.097805884876 3687.097805884876 4 16 46 125 4577
1754	316970 141 145339919 152208789 3507.097805884876 3687.097805884876 4 1 19 29 407
1709	317111 216 139508960 152528997 3417.064499667496 3717.064499667496 6 19 53 240 10394
1708	317327 214 139508960 152528997 3417.064499667496 3717.064499667496 6 5 22 79 1265
1763	317541 143 145988573 152374898 3520.010865621734 3700.010865621734 4 6 35 95 2721
1762	317684 142 145988573 152374898 3520.010865621734 3700.010865621734 4 4 11 30 262
1753	317826 180 145334388 152696796 3507.033524478506 3747.033524478506 5 14 45 145 4961
1752	318006 176 145334388 152696796 3507.033524478506 3747.033524478506 5 2 19 38 474
1809	318182 108 150682518 152661275 3622.052784548141 3742.052784548141 3 14 43 86 2886
1808	318290 106 150682518 152661275 3622.052784548141 3742.052784548141 3 3 13 22 214
1805	318396 108 149814048 152559224 3602.071187122189 3722.071187122189 3 12 40 74 2228
1804	318504 105 149814048 152559224 3602.071187122189 3722.071187122189 3 1 8 13 81
1693	318609 252 138198156 152775480 3398.015049519879 3758.015049519879 7 13 53 262 11372
1692	318861 247 138198156 152775480 3398.015049519879 3758.015049519879 7 2 15 60 634
1729	319108 216 143210318 152827738 3472.057168784784 3772.057168784784 6 13 56 211 8731
1728	319324 212 143210318 152827738 3472.057168784784 3772.057168784784 6 0 24 56 870
1757	319536 175 145386418 152703512 3508.07316010131 3748.07316010131 5 17 49 174 6826
1756	319711 173 145386418 152703512 3508.07316010131 3748.07316010131 5 7 21 63 933
1803	319884 144 149626824 152843733 3597.064355451567 3777.064355451567 4 12 46 110 3740
1802	320028 141 149626824 152843733 3597.064355451567 3777.064355451567 4 1 17 28 348
1727	320169 251 141885169 152905400 3452.056258156803 3812.056258156803 7 6 48 230 9328
1726	320420 249 141885169 152905400 3452.056258156803 3812.056258156803 7 1 40 86 2072
1791	320669 179 148674443 152906467 3573.028270454379 3813.028270454379 5 5 45 127 4325
1790	320848 177 148674443 152906467 3573.028270454379 3813.028270454379 5 1 24 43 739
1799	321025 179 149497520 152929234 3594.026187289553 3834.026187289553 5 6 39 110 3176
1798	321204 176 149497520 152929234 3594.026187289553 3834.026187289553 5 2 11 27 203
1715	321380 286 139765218 152938792 3421.009695132053 3841.009695132053 8 5 54 255 10949
1714	321666 280 139765218 152938792 3421.009695132053 3841.009695132053 8 0 9 28 178
1769	321946 215 146825363 152934972 3538.051816485287 3838.051816485287 6 5 36 138 4006
1768	322161 211 146825363 152934972 3538.051816485287 3838.051816485287 6 2 13 40 360
1759	322372 250 145562455 152967958 3512.076150191063 3872.076150191063 7 4 47 181 6525
1758	322622 247 145562455 152967958 3512.076150191063 3872.076150191063 7 0 21 36 558
1789	322869 214 148460626 152966032 3569.062174990354 3869.062174990354 6 4 43 135 4395
1788	323083 212 148460626 152966032 3569.062174990354 3869.062174990354 6 1 21 49 675
1815	323295 178 151080488 152968722 3633.059661928681 3873.059661928681 5 4 39 87 2327
1814	323473 177 151080488 152968722 3633.059661928681 3873.059661928681 5 0 10 22 202

