version 2
run No_Obstacles-0-20191117-11:17:12-6118
attr configname No_Obstacles
attr datetime 20191117-11:17:12
attr experiment No_Obstacles
attr inifile omnetpp.ini
attr iterationvars $0=0
attr iterationvarsf 0-
attr measurement $0=0
attr network artery.veins.World
attr processid 6118
attr repetition 0
attr replication #0
attr resultdir results
attr runnumber 0
attr seedset 0
param *.traci.launcher.sumocfg "\"No_Obstacles/run.sumo.cfg\""
param *.node[*].nic.mac1609_4.txPower 20mW
param *.node[*].nic.phy80211p.decider "xmldoc(\"config.xml\")"
param *.node[*].nic.phy80211p.analogueModels "xmldoc(\"config.xml\")"
param *.node[*].applType "\"artery.veins.ApplicationLayer\""
param *.node[*].appl.middleware.updateInterval 0.1s
param *.node[*].appl.middleware.datetime "\"2013-06-01 12:35:00\""
param *.node[*].appl.middleware.services "xmldoc(\"services.xml\")"
param *.node[*].appl.middleware.ExampleService.DecisionLogic 0
param *.node[*].appl.middleware.ExampleService.NeighboringWindow 60
param *.traci.core.version -1
param *.traci.launcher.typename "\"PosixLauncher\""
param *.playgroundSizeX 4000m
param *.playgroundSizeY 4000m
param *.playgroundSizeZ 50m
param *.connectionManager.maxInterfDist 1500m
param *.connectionManager.sendDirect true
param *.connectionManager.coreDebug false

vector 0 World.node[2].appl.middleware.ExampleService proof_size ETV
vector 1 World.node[2].appl.middleware.ExampleService proof_requested ETV
vector 2 World.node[3].appl.middleware.ExampleService proof_size ETV
vector 3 World.node[3].appl.middleware.ExampleService proof_requested ETV
1	6306	20.021038256167	2
0	6306	20.021038256167	1
vector 4 World.node[4].appl.middleware.ExampleService proof_size ETV
vector 5 World.node[4].appl.middleware.ExampleService proof_requested ETV
3	10079	24.120392390206	4
2	10079	24.120392390206	4
vector 6 World.node[6].appl.middleware.ExampleService proof_size ETV
vector 7 World.node[6].appl.middleware.ExampleService proof_requested ETV
vector 8 World.node[10].appl.middleware.ExampleService proof_size ETV
vector 9 World.node[10].appl.middleware.ExampleService proof_requested ETV
vector 10 World.node[5].appl.middleware.ExampleService proof_size ETV
vector 11 World.node[5].appl.middleware.ExampleService proof_requested ETV
vector 12 World.node[0].appl.middleware.ExampleService proof_size ETV
vector 13 World.node[0].appl.middleware.ExampleService proof_requested ETV
vector 14 World.node[1].appl.middleware.ExampleService proof_size ETV
vector 15 World.node[1].appl.middleware.ExampleService proof_requested ETV
vector 16 World.node[8].appl.middleware.ExampleService proof_size ETV
vector 17 World.node[8].appl.middleware.ExampleService proof_requested ETV
vector 18 World.node[16].appl.middleware.ExampleService proof_size ETV
vector 19 World.node[16].appl.middleware.ExampleService proof_requested ETV
vector 20 World.node[12].appl.middleware.ExampleService proof_size ETV
vector 21 World.node[12].appl.middleware.ExampleService proof_requested ETV
vector 22 World.node[7].appl.middleware.ExampleService proof_size ETV
vector 23 World.node[7].appl.middleware.ExampleService proof_requested ETV
vector 24 World.node[13].appl.middleware.ExampleService proof_size ETV
vector 25 World.node[13].appl.middleware.ExampleService proof_requested ETV
vector 26 World.node[19].appl.middleware.ExampleService proof_size ETV
vector 27 World.node[19].appl.middleware.ExampleService proof_requested ETV
vector 28 World.node[11].appl.middleware.ExampleService proof_size ETV
vector 29 World.node[11].appl.middleware.ExampleService proof_requested ETV
vector 30 World.node[14].appl.middleware.ExampleService proof_size ETV
vector 31 World.node[14].appl.middleware.ExampleService proof_requested ETV
vector 32 World.node[20].appl.middleware.ExampleService proof_size ETV
vector 33 World.node[20].appl.middleware.ExampleService proof_requested ETV
vector 34 World.node[15].appl.middleware.ExampleService proof_size ETV
vector 35 World.node[15].appl.middleware.ExampleService proof_requested ETV
vector 36 World.node[18].appl.middleware.ExampleService proof_size ETV
vector 37 World.node[18].appl.middleware.ExampleService proof_requested ETV
vector 38 World.node[17].appl.middleware.ExampleService proof_size ETV
vector 39 World.node[17].appl.middleware.ExampleService proof_requested ETV
vector 40 World.node[24].appl.middleware.ExampleService proof_size ETV
vector 41 World.node[24].appl.middleware.ExampleService proof_requested ETV
13	85066	54.060276337038	11
12	85066	54.060276337038	8
15	85169	54.081216872646	10
14	85169	54.081216872646	0
vector 42 World.node[22].appl.middleware.ExampleService proof_size ETV
vector 43 World.node[22].appl.middleware.ExampleService proof_requested ETV
vector 44 World.node[25].appl.middleware.ExampleService proof_size ETV
vector 45 World.node[25].appl.middleware.ExampleService proof_requested ETV
vector 46 World.node[27].appl.middleware.ExampleService proof_size ETV
vector 47 World.node[27].appl.middleware.ExampleService proof_requested ETV
7	38828	41.049654812762	9
7	398637	101.049654812762	19
6	38828	41.049654812762	2
6	398637	101.049654812762	9
vector 48 World.node[30].appl.middleware.ExampleService proof_size ETV
vector 49 World.node[30].appl.middleware.ExampleService proof_requested ETV
27	277217	87.055086417031	17
27	1079786	147.055086417031	28
26	277217	87.055086417031	7
26	1079786	147.055086417031	14
43	491729	109.068891713698	21
42	491729	109.068891713698	12
vector 50 World.node[26].appl.middleware.ExampleService proof_size ETV
vector 51 World.node[26].appl.middleware.ExampleService proof_requested ETV
vector 52 World.node[28].appl.middleware.ExampleService proof_size ETV
vector 53 World.node[28].appl.middleware.ExampleService proof_requested ETV
vector 54 World.node[31].appl.middleware.ExampleService proof_size ETV
vector 55 World.node[31].appl.middleware.ExampleService proof_requested ETV
vector 56 World.node[23].appl.middleware.ExampleService proof_size ETV
vector 57 World.node[23].appl.middleware.ExampleService proof_requested ETV
vector 58 World.node[29].appl.middleware.ExampleService proof_size ETV
vector 59 World.node[29].appl.middleware.ExampleService proof_requested ETV
25	227217	80.092676929082	17
25	942385	140.092676929082	27
24	227217	80.092676929082	0
24	942385	140.092676929082	1
17	140351	65.024511604174	13
17	685371	125.024511604174	22
16	140351	65.024511604174	9
16	685371	125.024511604174	4
vector 60 World.node[37].appl.middleware.ExampleService proof_size ETV
vector 61 World.node[37].appl.middleware.ExampleService proof_requested ETV
vector 62 World.node[36].appl.middleware.ExampleService proof_size ETV
vector 63 World.node[36].appl.middleware.ExampleService proof_requested ETV
vector 64 World.node[32].appl.middleware.ExampleService proof_size ETV
vector 65 World.node[32].appl.middleware.ExampleService proof_requested ETV
vector 66 World.node[40].appl.middleware.ExampleService proof_size ETV
vector 67 World.node[40].appl.middleware.ExampleService proof_requested ETV
vector 68 World.node[33].appl.middleware.ExampleService proof_size ETV
vector 69 World.node[33].appl.middleware.ExampleService proof_requested ETV
vector 70 World.node[34].appl.middleware.ExampleService proof_size ETV
vector 71 World.node[34].appl.middleware.ExampleService proof_requested ETV
35	434763	104.055954930792	20
35	1424959	164.055954930792	29
34	434763	104.055954930792	6
34	1424959	164.055954930792	5
19	146194	66.055771165411	8
19	702222	126.055771165411	24
18	146194	66.055771165411	1
18	702222	126.055771165411	13
67	1576072	171.077823137678	29
66	1576072	171.077823137678	11
31	365591	98.007902179123	19
31	1288653	158.007902179123	29
30	365591	98.007902179123	12
30	1288653	158.007902179123	14
vector 72 World.node[44].appl.middleware.ExampleService proof_size ETV
vector 73 World.node[44].appl.middleware.ExampleService proof_requested ETV
vector 74 World.node[38].appl.middleware.ExampleService proof_size ETV
vector 75 World.node[38].appl.middleware.ExampleService proof_requested ETV
9	41241	42.043227958516	9
9	411925	102.043227958516	18
9	1377958	162.043227958516	26
8	41241	42.043227958516	3
8	411925	102.043227958516	6
8	1377958	162.043227958516	12
vector 76 World.node[41].appl.middleware.ExampleService proof_size ETV
vector 77 World.node[41].appl.middleware.ExampleService proof_requested ETV
vector 78 World.node[48].appl.middleware.ExampleService proof_size ETV
vector 79 World.node[48].appl.middleware.ExampleService proof_requested ETV
23	161188	69.053149428102	12
23	754131	129.053149428102	25
23	1958780	189.053149428102	33
22	161188	69.053149428102	5
22	754131	129.053149428102	13
22	1958780	189.053149428102	15
49	1019456	144.063140496262	27
49	2318887	204.063140496262	25
48	1019456	144.063140496262	13
48	2318887	204.063140496262	9
vector 80 World.node[46].appl.middleware.ExampleService proof_size ETV
vector 81 World.node[46].appl.middleware.ExampleService proof_requested ETV
vector 82 World.node[43].appl.middleware.ExampleService proof_size ETV
vector 83 World.node[43].appl.middleware.ExampleService proof_requested ETV
vector 84 World.node[39].appl.middleware.ExampleService proof_size ETV
vector 85 World.node[39].appl.middleware.ExampleService proof_requested ETV
vector 86 World.node[42].appl.middleware.ExampleService proof_size ETV
vector 87 World.node[42].appl.middleware.ExampleService proof_requested ETV
vector 88 World.node[52].appl.middleware.ExampleService proof_size ETV
vector 89 World.node[52].appl.middleware.ExampleService proof_requested ETV
vector 90 World.node[54].appl.middleware.ExampleService proof_size ETV
vector 91 World.node[54].appl.middleware.ExampleService proof_requested ETV
47	782859	131.001905909041	24
47	1998289	191.001905909041	32
46	782859	131.001905909041	12
46	1998289	191.001905909041	20
69	1661089	176.041276706778	28
68	1661089	176.041276706778	0
vector 92 World.node[45].appl.middleware.ExampleService proof_size ETV
vector 93 World.node[45].appl.middleware.ExampleService proof_requested ETV
55	1178159	152.077565127308	28
55	2535192	212.077565127308	33
54	1178159	152.077565127308	10
54	2535192	212.077565127308	15
41	455376	106.021355609945	16
41	1468593	166.021355609945	28
41	2940548	226.021355609945	31
40	455376	106.021355609945	2
40	1468593	166.021355609945	8
40	2940548	226.021355609945	8
21	152265	67.034765173541	11
21	721188	127.034765173541	24
21	1909520	187.034765173541	32
20	152265	67.034765173541	6
20	721188	127.034765173541	15
20	1909520	187.034765173541	19
vector 94 World.node[49].appl.middleware.ExampleService proof_size ETV
vector 95 World.node[49].appl.middleware.ExampleService proof_requested ETV
vector 96 World.node[47].appl.middleware.ExampleService proof_size ETV
vector 97 World.node[47].appl.middleware.ExampleService proof_requested ETV
vector 98 World.node[50].appl.middleware.ExampleService proof_size ETV
vector 99 World.node[50].appl.middleware.ExampleService proof_requested ETV
51	1165799	151.083777805883	22
51	2507796	211.083777805883	30
50	1165799	151.083777805883	3
50	2507796	211.083777805883	10
75	2102116	195.044183569937	31
74	2102116	195.044183569937	14
vector 100 World.node[62].appl.middleware.ExampleService proof_size ETV
vector 101 World.node[62].appl.middleware.ExampleService proof_requested ETV
vector 102 World.node[57].appl.middleware.ExampleService proof_size ETV
vector 103 World.node[57].appl.middleware.ExampleService proof_requested ETV
vector 104 World.node[51].appl.middleware.ExampleService proof_size ETV
vector 105 World.node[51].appl.middleware.ExampleService proof_requested ETV
vector 106 World.node[55].appl.middleware.ExampleService proof_size ETV
vector 107 World.node[55].appl.middleware.ExampleService proof_requested ETV
91	2878176	224.058122046525	36
90	2878176	224.058122046525	18
33	427173	103.088407234708	19
33	1409466	163.088407234708	29
33	2857140	223.088407234708	32
32	427173	103.088407234708	11
32	1409466	163.088407234708	11
32	2857140	223.088407234708	18
5	21073	33.043214804772	6
5	322611	93.043214804772	17
5	1195425	153.043214804772	28
5	2557685	213.043214804772	26
5	4323273	273.043214804772	14
4	21073	33.043214804772	3
4	322611	93.043214804772	7
4	1195425	153.043214804772	11
4	2557685	213.043214804772	8
4	4323273	273.043214804772	1
vector 108 World.node[56].appl.middleware.ExampleService proof_size ETV
vector 109 World.node[56].appl.middleware.ExampleService proof_requested ETV
63	1484732	167.028789686365	31
63	2964774	227.028789686365	33
62	1484732	167.028789686365	1
62	2964774	227.028789686365	9
vector 110 World.node[66].appl.middleware.ExampleService proof_size ETV
vector 111 World.node[66].appl.middleware.ExampleService proof_requested ETV
vector 112 World.node[58].appl.middleware.ExampleService proof_size ETV
vector 113 World.node[58].appl.middleware.ExampleService proof_requested ETV
45	561818	116.019842461194	14
45	1660857	176.019842461194	32
45	3250653	236.019842461194	36
44	561818	116.019842461194	6
44	1660857	176.019842461194	5
44	3250653	236.019842461194	19
29	298255	90.020122929243	15
29	1141962	150.020122929243	27
29	2476404	210.020122929243	27
29	4201625	270.020122929243	35
28	298255	90.020122929243	6
28	1141962	150.020122929243	11
28	2476404	210.020122929243	10
28	4201625	270.020122929243	11
37	444377	105.012932859454	19
37	1447166	165.012932859454	30
37	2911351	225.012932859454	36
36	444377	105.012932859454	5
36	1447166	165.012932859454	12
36	2911351	225.012932859454	14
vector 114 World.node[59].appl.middleware.ExampleService proof_size ETV
vector 115 World.node[59].appl.middleware.ExampleService proof_requested ETV
vector 116 World.node[61].appl.middleware.ExampleService proof_size ETV
vector 117 World.node[61].appl.middleware.ExampleService proof_requested ETV
53	1166195	151.08858463692	21
53	2510350	211.08858463692	20
53	4238314	271.08858463692	32
52	1166195	151.08858463692	3
52	2510350	211.08858463692	10
52	4238314	271.08858463692	5
vector 118 World.node[69].appl.middleware.ExampleService proof_size ETV
vector 119 World.node[69].appl.middleware.ExampleService proof_requested ETV
109	4369898	274.08017380992	37
108	4369898	274.08017380992	14
vector 120 World.node[67].appl.middleware.ExampleService proof_size ETV
vector 121 World.node[67].appl.middleware.ExampleService proof_requested ETV
11	79922	53.045309424866	11
11	529900	113.045309424866	20
11	1610517	173.045309424866	31
11	3159480	233.045309424866	36
11	4959626	293.045309424866	29
10	79922	53.045309424866	6
10	529900	113.045309424866	7
10	1610517	173.045309424866	11
10	3159480	233.045309424866	17
10	4959626	293.045309424866	14
vector 122 World.node[71].appl.middleware.ExampleService proof_size ETV
vector 123 World.node[71].appl.middleware.ExampleService proof_requested ETV
vector 124 World.node[64].appl.middleware.ExampleService proof_size ETV
vector 125 World.node[64].appl.middleware.ExampleService proof_requested ETV
vector 126 World.node[60].appl.middleware.ExampleService proof_size ETV
vector 127 World.node[60].appl.middleware.ExampleService proof_requested ETV
85	2712812	219.004761280329	34
85	4526401	279.004761280329	36
84	2712812	219.004761280329	15
84	4526401	279.004761280329	19
121	5023255	295.073366479529	23
120	5023255	295.073366479529	4
vector 128 World.node[75].appl.middleware.ExampleService proof_size ETV
vector 129 World.node[75].appl.middleware.ExampleService proof_requested ETV
vector 130 World.node[65].appl.middleware.ExampleService proof_size ETV
vector 131 World.node[65].appl.middleware.ExampleService proof_requested ETV
vector 132 World.node[74].appl.middleware.ExampleService proof_size ETV
vector 133 World.node[74].appl.middleware.ExampleService proof_requested ETV
vector 134 World.node[79].appl.middleware.ExampleService proof_size ETV
vector 135 World.node[79].appl.middleware.ExampleService proof_requested ETV
103	3906075	259.025730578322	35
103	5728441	319.025730578322	37
102	3906075	259.025730578322	11
102	5728441	319.025730578322	7
vector 136 World.node[76].appl.middleware.ExampleService proof_size ETV
vector 137 World.node[76].appl.middleware.ExampleService proof_requested ETV
vector 138 World.node[73].appl.middleware.ExampleService proof_size ETV
vector 139 World.node[73].appl.middleware.ExampleService proof_requested ETV
65	1554919	170.068287000642	29
65	3069411	230.068287000642	32
65	4869528	290.068287000642	34
64	1554919	170.068287000642	12
64	3069411	230.068287000642	18
64	4869528	290.068287000642	17
vector 140 World.node[84].appl.middleware.ExampleService proof_size ETV
vector 141 World.node[84].appl.middleware.ExampleService proof_requested ETV
vector 142 World.node[78].appl.middleware.ExampleService proof_size ETV
vector 143 World.node[78].appl.middleware.ExampleService proof_requested ETV
135	6237155	333.051707010483	36
134	6237155	333.051707010483	8
vector 144 World.node[72].appl.middleware.ExampleService proof_size ETV
vector 145 World.node[72].appl.middleware.ExampleService proof_requested ETV
57	1217263	154.033881040686	27
57	2587988	214.033881040686	32
57	4366260	274.033881040686	38
57	6281292	334.033881040686	25
56	1217263	154.033881040686	1
56	2587988	214.033881040686	15
56	4366260	274.033881040686	28
56	6281292	334.033881040686	19
vector 146 World.node[70].appl.middleware.ExampleService proof_size ETV
vector 147 World.node[70].appl.middleware.ExampleService proof_requested ETV
vector 148 World.node[85].appl.middleware.ExampleService proof_size ETV
vector 149 World.node[85].appl.middleware.ExampleService proof_requested ETV
vector 150 World.node[86].appl.middleware.ExampleService proof_size ETV
vector 151 World.node[86].appl.middleware.ExampleService proof_requested ETV
vector 152 World.node[83].appl.middleware.ExampleService proof_size ETV
vector 153 World.node[83].appl.middleware.ExampleService proof_requested ETV
vector 154 World.node[80].appl.middleware.ExampleService proof_size ETV
vector 155 World.node[80].appl.middleware.ExampleService proof_requested ETV
89	2872134	224.000453064218	32
89	4684920	284.000453064218	34
89	6702057	344.000453064218	39
88	2872134	224.000453064218	15
88	4684920	284.000453064218	15
88	6702057	344.000453064218	13
61	1483394	167.00584537189	28
61	2963175	227.00584537189	32
61	4773401	287.00584537189	29
61	6832389	347.00584537189	21
60	1483394	167.00584537189	4
60	2963175	227.00584537189	4
60	4773401	287.00584537189	6
60	6832389	347.00584537189	3
vector 156 World.node[87].appl.middleware.ExampleService proof_size ETV
vector 157 World.node[87].appl.middleware.ExampleService proof_requested ETV
83	2591895	214.08686578034	21
83	4370961	274.08686578034	32
83	6286286	334.08686578034	41
82	2591895	214.08686578034	8
82	4370961	274.08686578034	3
82	6286286	334.08686578034	1
113	4394230	275.037496719859	34
113	6313384	335.037496719859	25
112	4394230	275.037496719859	23
112	6313384	335.037496719859	8
39	446370	105.083140984434	19
39	1450521	165.083140984434	30
39	2916284	225.083140984434	32
39	4723476	285.083140984434	34
39	6765410	345.083140984434	41
38	446370	105.083140984434	9
38	1450521	165.083140984434	11
38	2916284	225.083140984434	1
38	4723476	285.083140984434	11
38	6765410	345.083140984434	9
115	4592531	281.04822931427	34
115	6574700	341.04822931427	42
114	4592531	281.04822931427	17
114	6574700	341.04822931427	16
97	3558481	247.022120056464	33
97	5350518	307.022120056464	35
96	3558481	247.022120056464	16
96	5350518	307.022120056464	17
vector 158 World.node[91].appl.middleware.ExampleService proof_size ETV
vector 159 World.node[91].appl.middleware.ExampleService proof_requested ETV
vector 160 World.node[88].appl.middleware.ExampleService proof_size ETV
vector 161 World.node[88].appl.middleware.ExampleService proof_requested ETV
vector 162 World.node[77].appl.middleware.ExampleService proof_size ETV
vector 163 World.node[77].appl.middleware.ExampleService proof_requested ETV
95	3531446	246.029212027369	28
95	5322273	306.029212027369	34
94	3531446	246.029212027369	11
94	5322273	306.029212027369	4
vector 164 World.node[82].appl.middleware.ExampleService proof_size ETV
vector 165 World.node[82].appl.middleware.ExampleService proof_requested ETV
107	4091422	266.025607146765	37
107	5961245	326.025607146765	37
106	4091422	266.025607146765	9
106	5961245	326.025607146765	18
vector 166 World.node[94].appl.middleware.ExampleService proof_size ETV
vector 167 World.node[94].appl.middleware.ExampleService proof_requested ETV
77	2174823	198.04949495194	22
77	3880201	258.04949495194	33
77	5700423	318.04949495194	37
76	2174823	198.04949495194	12
76	3880201	258.04949495194	12
76	5700423	318.04949495194	12
vector 168 World.node[92].appl.middleware.ExampleService proof_size ETV
vector 169 World.node[92].appl.middleware.ExampleService proof_requested ETV
vector 170 World.node[90].appl.middleware.ExampleService proof_size ETV
vector 171 World.node[90].appl.middleware.ExampleService proof_requested ETV
vector 172 World.node[81].appl.middleware.ExampleService proof_size ETV
vector 173 World.node[81].appl.middleware.ExampleService proof_requested ETV
71	1732400	180.084494836139	27
71	3377349	240.084494836139	30
71	5164156	300.084494836139	31
71	7308524	360.084494836139	38
70	1732400	180.084494836139	5
70	3377349	240.084494836139	18
70	5164156	300.084494836139	1
70	7308524	360.084494836139	13
127	5321242	306.01453974545	31
127	7530382	366.01453974545	38
126	5321242	306.01453974545	10
126	7530382	366.01453974545	9
87	2815233	222.049344046903	20
87	4625584	282.049344046903	32
87	6624971	342.049344046903	39
86	2815233	222.049344046903	9
86	4625584	282.049344046903	18
86	6624971	342.049344046903	21
vector 174 World.node[95].appl.middleware.ExampleService proof_size ETV
vector 175 World.node[95].appl.middleware.ExampleService proof_requested ETV
vector 176 World.node[93].appl.middleware.ExampleService proof_size ETV
vector 177 World.node[93].appl.middleware.ExampleService proof_requested ETV
145	6625877	342.054407957988	37
144	6625877	342.054407957988	2
59	1257827	156.069300617836	28
59	2640479	216.069300617836	31
59	4430464	276.069300617836	38
59	6363186	336.069300617836	42
59	8876847	396.069300617836	35
58	1257827	156.069300617836	12
58	2640479	216.069300617836	15
58	4430464	276.069300617836	20
58	6363186	336.069300617836	19
58	8876847	396.069300617836	15
vector 178 World.node[101].appl.middleware.ExampleService proof_size ETV
vector 179 World.node[101].appl.middleware.ExampleService proof_requested ETV
vector 180 World.node[99].appl.middleware.ExampleService proof_size ETV
vector 181 World.node[99].appl.middleware.ExampleService proof_requested ETV
vector 182 World.node[89].appl.middleware.ExampleService proof_size ETV
vector 183 World.node[89].appl.middleware.ExampleService proof_requested ETV
81	2475450	210.004222729499	29
81	4200241	270.004222729499	36
81	6100122	330.004222729499	38
81	8564584	390.004222729499	39
80	2475450	210.004222729499	9
80	4200241	270.004222729499	11
80	6100122	330.004222729499	13
80	8564584	390.004222729499	12
105	4049805	264.078031193838	33
105	5906089	324.078031193838	34
105	8335492	384.078031193838	41
104	4049805	264.078031193838	10
104	5906089	324.078031193838	17
104	8335492	384.078031193838	15
173	8111817	379.043794596195	40
172	8111817	379.043794596195	23
143	6487717	339.025222916505	35
143	9001469	399.025222916505	43
142	6487717	339.025222916505	16
142	9001469	399.025222916505	31
vector 184 World.node[105].appl.middleware.ExampleService proof_size ETV
vector 185 World.node[105].appl.middleware.ExampleService proof_requested ETV
vector 186 World.node[106].appl.middleware.ExampleService proof_size ETV
vector 187 World.node[106].appl.middleware.ExampleService proof_requested ETV
vector 188 World.node[96].appl.middleware.ExampleService proof_size ETV
vector 189 World.node[96].appl.middleware.ExampleService proof_requested ETV
vector 190 World.node[98].appl.middleware.ExampleService proof_size ETV
vector 191 World.node[98].appl.middleware.ExampleService proof_requested ETV
vector 192 World.node[102].appl.middleware.ExampleService proof_size ETV
vector 193 World.node[102].appl.middleware.ExampleService proof_requested ETV
73	2079841	194.056340697152	31
73	3762639	254.056340697152	37
73	5552330	314.056340697152	36
73	7868205	374.056340697152	41
73	10538087	434.056340697152	45
72	2079841	194.056340697152	6
72	3762639	254.056340697152	8
72	5552330	314.056340697152	15
72	7868205	374.056340697152	20
72	10538087	434.056340697152	0
131	5757762	320.099581558094	36
131	8154477	380.099581558094	35
130	5757762	320.099581558094	14
130	8154477	380.099581558094	20
vector 194 World.node[100].appl.middleware.ExampleService proof_size ETV
vector 195 World.node[100].appl.middleware.ExampleService proof_requested ETV
vector 196 World.node[108].appl.middleware.ExampleService proof_size ETV
vector 197 World.node[108].appl.middleware.ExampleService proof_requested ETV
vector 198 World.node[97].appl.middleware.ExampleService proof_size ETV
vector 199 World.node[97].appl.middleware.ExampleService proof_requested ETV
vector 200 World.node[111].appl.middleware.ExampleService proof_size ETV
vector 201 World.node[111].appl.middleware.ExampleService proof_requested ETV
vector 202 World.node[103].appl.middleware.ExampleService proof_size ETV
vector 203 World.node[103].appl.middleware.ExampleService proof_requested ETV
vector 204 World.node[107].appl.middleware.ExampleService proof_size ETV
vector 205 World.node[107].appl.middleware.ExampleService proof_requested ETV
vector 206 World.node[113].appl.middleware.ExampleService proof_size ETV
vector 207 World.node[113].appl.middleware.ExampleService proof_requested ETV
111	4392421	275.016889673751	33
111	6311030	335.016889673751	40
111	8812815	395.016889673751	44
110	4392421	275.016889673751	15
110	6311030	335.016889673751	7
110	8812815	395.016889673751	20
vector 208 World.node[114].appl.middleware.ExampleService proof_size ETV
vector 209 World.node[114].appl.middleware.ExampleService proof_requested ETV
vector 210 World.node[109].appl.middleware.ExampleService proof_size ETV
vector 211 World.node[109].appl.middleware.ExampleService proof_requested ETV
117	4755626	286.085415701265	34
117	6808964	346.085415701265	34
117	9303738	406.085415701265	44
116	4755626	286.085415701265	19
116	6808964	346.085415701265	18
116	9303738	406.085415701265	15
133	5936563	325.043550265394	38
133	8367520	385.043550265394	39
133	11065678	445.043550265394	47
132	5936563	325.043550265394	16
132	8367520	385.043550265394	12
132	11065678	445.043550265394	10
vector 212 World.node[110].appl.middleware.ExampleService proof_size ETV
vector 213 World.node[110].appl.middleware.ExampleService proof_requested ETV
vector 214 World.node[112].appl.middleware.ExampleService proof_size ETV
vector 215 World.node[112].appl.middleware.ExampleService proof_requested ETV
137	6286003	334.083906671428	35
137	8782502	394.083906671428	43
137	11519277	454.083906671428	47
136	6286003	334.083906671428	13
136	8782502	394.083906671428	24
136	11519277	454.083906671428	22
129	5756425	320.070476348535	37
129	8150850	380.070476348535	42
129	10820524	440.070476348535	44
128	5756425	320.070476348535	24
128	8150850	380.070476348535	27
128	10820524	440.070476348535	6
125	5163444	300.073000011663	33
125	7307441	360.073000011663	39
125	9872190	420.073000011663	42
124	5163444	300.073000011663	18
124	7307441	360.073000011663	0
124	9872190	420.073000011663	0
123	5161271	300.038923923485	34
123	7306298	360.038923923485	40
123	9869077	420.038923923485	43
122	5161271	300.038923923485	28
122	7306298	360.038923923485	13
122	9869077	420.038923923485	14
149	6707030	344.035833276389	14
149	9206212	404.035833276389	39
149	12091445	464.035833276389	48
148	6707030	344.035833276389	0
148	9206212	404.035833276389	0
148	12091445	464.035833276389	15
119	4806175	288.0021765996	33
119	6880962	348.0021765996	37
119	9371836	408.0021765996	44
119	12313592	468.0021765996	40
118	4806175	288.0021765996	15
118	6880962	348.0021765996	16
118	9371836	408.0021765996	15
118	12313592	468.0021765996	21
79	2294262	203.066873398493	13
79	4021658	263.066873398493	32
79	5863332	323.066873398493	35
79	8291887	383.066873398493	40
79	10971037	443.066873398493	32
78	2294262	203.066873398493	3
78	4021658	263.066873398493	12
78	5863332	323.066873398493	10
78	8291887	383.066873398493	17
78	10971037	443.066873398493	7
vector 216 World.node[117].appl.middleware.ExampleService proof_size ETV
vector 217 World.node[117].appl.middleware.ExampleService proof_requested ETV
153	6893901	348.09433129793	29
153	9384662	408.09433129793	42
153	12329907	468.09433129793	47
152	6893901	348.09433129793	10
152	9384662	408.09433129793	10
152	12329907	468.09433129793	0
167	7734862	371.095530087105	39
167	10379945	431.095530087105	40
166	7734862	371.095530087105	1
166	10379945	431.095530087105	0
vector 218 World.node[116].appl.middleware.ExampleService proof_size ETV
vector 219 World.node[116].appl.middleware.ExampleService proof_requested ETV
vector 220 World.node[118].appl.middleware.ExampleService proof_size ETV
vector 221 World.node[118].appl.middleware.ExampleService proof_requested ETV
vector 222 World.node[123].appl.middleware.ExampleService proof_size ETV
vector 223 World.node[123].appl.middleware.ExampleService proof_requested ETV
203	10813903	440.017185697216	38
202	10813903	440.017185697216	9
185	10141627	426.048119154898	44
185	13179823	486.048119154898	30
184	10141627	426.048119154898	18
184	13179823	486.048119154898	13
201	10772922	439.076882512611	46
200	10772922	439.076882512611	20
vector 224 World.node[115].appl.middleware.ExampleService proof_size ETV
vector 225 World.node[115].appl.middleware.ExampleService proof_requested ETV
99	3669650	251.049210722721	34
99	5460565	311.049210722721	36
99	7728055	371.049210722721	41
99	10370821	431.049210722721	45
99	13389172	491.049210722721	46
98	3669650	251.049210722721	14
98	5460565	311.049210722721	12
98	7728055	371.049210722721	13
98	10370821	431.049210722721	14
98	13389172	491.049210722721	16
vector 226 World.node[121].appl.middleware.ExampleService proof_size ETV
vector 227 World.node[121].appl.middleware.ExampleService proof_requested ETV
197	10677222	437.03609138045	40
196	10677222	437.03609138045	0
157	7049786	352.054457791569	42
157	9544905	412.054457791569	40
157	12534869	472.054457791569	45
156	7049786	352.054457791569	11
156	9544905	412.054457791569	14
156	12534869	472.054457791569	14
161	7375889	362.086494060187	40
161	9956979	422.086494060187	42
161	12993863	482.086494060187	30
160	7375889	362.086494060187	11
160	9956979	422.086494060187	15
160	12993863	482.086494060187	16
179	9002724	399.040652872063	44
179	11788893	459.040652872063	46
178	9002724	399.040652872063	16
178	11788893	459.040652872063	17
139	6286377	334.087000443228	27
139	8783470	394.087000443228	41
139	11519960	454.087000443228	46
138	6286377	334.087000443228	0
138	8783470	394.087000443228	4
138	11519960	454.087000443228	0
vector 228 World.node[126].appl.middleware.ExampleService proof_size ETV
vector 229 World.node[126].appl.middleware.ExampleService proof_requested ETV
vector 230 World.node[119].appl.middleware.ExampleService proof_size ETV
vector 231 World.node[119].appl.middleware.ExampleService proof_requested ETV
215	11559603	455.061883208621	46
214	11559603	455.061883208621	35
vector 232 World.node[131].appl.middleware.ExampleService proof_size ETV
vector 233 World.node[131].appl.middleware.ExampleService proof_requested ETV
vector 234 World.node[122].appl.middleware.ExampleService proof_size ETV
vector 235 World.node[122].appl.middleware.ExampleService proof_requested ETV
165	7536633	366.075518341945	39
165	10142593	426.075518341945	37
165	13182300	486.075518341945	27
164	7536633	366.075518341945	16
164	10142593	426.075518341945	15
164	13182300	486.075518341945	12
205	10921780	442.06424541662	45
205	13798157	502.06424541662	19
204	10921780	442.06424541662	12
204	13798157	502.06424541662	4
vector 236 World.node[120].appl.middleware.ExampleService proof_size ETV
vector 237 World.node[120].appl.middleware.ExampleService proof_requested ETV
101	3850704	257.0259467036	37
101	5648146	317.0259467036	36
101	8004564	377.0259467036	40
101	10675976	437.0259467036	33
101	13624626	497.0259467036	31
100	3850704	257.0259467036	13
100	5648146	317.0259467036	9
100	8004564	377.0259467036	10
100	10675976	437.0259467036	1
100	13624626	497.0259467036	0
163	7458662	364.030842801323	37
163	10046385	424.030842801323	43
163	13091168	484.030842801323	40
162	7458662	364.030842801323	17
162	10046385	424.030842801323	10
162	13091168	484.030842801323	24
vector 238 World.node[124].appl.middleware.ExampleService proof_size ETV
vector 239 World.node[124].appl.middleware.ExampleService proof_requested ETV
vector 240 World.node[125].appl.middleware.ExampleService proof_size ETV
vector 241 World.node[125].appl.middleware.ExampleService proof_requested ETV
221	12933009	481.046114039049	45
220	12933009	481.046114039049	19
227	13563474	495.019889863045	35
226	13563474	495.019889863045	7
vector 242 World.node[129].appl.middleware.ExampleService proof_size ETV
vector 243 World.node[129].appl.middleware.ExampleService proof_requested ETV
93	3105539	231.054052307084	34
93	4903610	291.054052307084	33
93	7014012	351.054052307084	40
93	9506453	411.054052307084	43
93	12490666	471.054052307084	40
93	14929415	531.054052307084	40
92	3105539	231.054052307084	17
92	4903610	291.054052307084	17
92	7014012	351.054052307084	20
92	9506453	411.054052307084	17
92	12490666	471.054052307084	21
92	14929415	531.054052307084	14
vector 244 World.node[128].appl.middleware.ExampleService proof_size ETV
vector 245 World.node[128].appl.middleware.ExampleService proof_requested ETV
vector 246 World.node[134].appl.middleware.ExampleService proof_size ETV
vector 247 World.node[134].appl.middleware.ExampleService proof_requested ETV
vector 248 World.node[127].appl.middleware.ExampleService proof_size ETV
vector 249 World.node[127].appl.middleware.ExampleService proof_requested ETV
187	10230927	428.054193920875	45
187	13271122	488.054193920875	41
186	10230927	428.054193920875	16
186	13271122	488.054193920875	19
239	14881750	530.039509174693	40
238	14881750	530.039509174693	2
151	6837187	347.049698858242	42
151	9336779	407.049698858242	32
151	12260244	467.049698858242	47
151	14767544	527.049698858242	41
150	6837187	347.049698858242	12
150	9336779	407.049698858242	11
150	12260244	467.049698858242	24
150	14767544	527.049698858242	15
vector 250 World.node[130].appl.middleware.ExampleService proof_size ETV
vector 251 World.node[130].appl.middleware.ExampleService proof_requested ETV
183	9246209	405.008992029331	44
183	12153830	465.008992029331	49
183	14699476	525.008992029331	41
182	9246209	405.008992029331	14
182	12153830	465.008992029331	30
182	14699476	525.008992029331	18
193	10538082	434.052667097677	47
193	13522594	494.052667097677	42
192	10538082	434.052667097677	16
192	13522594	494.052667097677	18
159	7353487	361.27106104848	14
159	10052329	424.080423974595	44
159	13098328	484.080423974595	41
159	15357019	544.080423974595	36
158	7353487	361.27106104848	14
158	10052329	424.080423974595	1
158	13098328	484.080423974595	19
158	15357019	544.080423974595	5
vector 252 World.node[141].appl.middleware.ExampleService proof_size ETV
vector 253 World.node[141].appl.middleware.ExampleService proof_requested ETV
235	14369704	516.083783933846	35
234	14369704	516.083783933846	20
231	14079036	509.075988605362	40
230	14079036	509.075988605362	19
vector 254 World.node[133].appl.middleware.ExampleService proof_size ETV
vector 255 World.node[133].appl.middleware.ExampleService proof_requested ETV
vector 256 World.node[137].appl.middleware.ExampleService proof_size ETV
vector 257 World.node[137].appl.middleware.ExampleService proof_requested ETV
155	6967660	350.001818629308	42
155	9463146	410.001818629308	40
155	12422746	470.001818629308	42
155	14878444	530.001818629308	38
154	6967660	350.001818629308	19
154	9463146	410.001818629308	10
154	12422746	470.001818629308	23
154	14878444	530.001818629308	4
vector 258 World.node[139].appl.middleware.ExampleService proof_size ETV
vector 259 World.node[139].appl.middleware.ExampleService proof_requested ETV
vector 260 World.node[144].appl.middleware.ExampleService proof_size ETV
vector 261 World.node[144].appl.middleware.ExampleService proof_requested ETV
vector 262 World.node[142].appl.middleware.ExampleService proof_size ETV
vector 263 World.node[142].appl.middleware.ExampleService proof_requested ETV
195	10586029	435.030791294924	46
195	13564383	495.030791294924	38
195	15767310	555.030791294924	33
194	10586029	435.030791294924	12
194	13564383	495.030791294924	12
194	15767310	555.030791294924	14
vector 264 World.node[143].appl.middleware.ExampleService proof_size ETV
vector 265 World.node[143].appl.middleware.ExampleService proof_requested ETV
vector 266 World.node[140].appl.middleware.ExampleService proof_size ETV
vector 267 World.node[140].appl.middleware.ExampleService proof_requested ETV
249	15214264	540.064156357222	38
248	15214264	540.064156357222	12
vector 268 World.node[132].appl.middleware.ExampleService proof_size ETV
vector 269 World.node[132].appl.middleware.ExampleService proof_requested ETV
229	14039082	508.014380031917	39
229	16216282	568.014380031917	37
228	14039082	508.014380031917	8
228	16216282	568.014380031917	5
vector 270 World.node[135].appl.middleware.ExampleService proof_size ETV
vector 271 World.node[135].appl.middleware.ExampleService proof_requested ETV
217	12568814	473.020490261633	45
217	14990339	533.020490261633	41
216	12568814	473.020490261633	28
216	14990339	533.020490261633	16
vector 272 World.node[136].appl.middleware.ExampleService proof_size ETV
vector 273 World.node[136].appl.middleware.ExampleService proof_requested ETV
vector 274 World.node[147].appl.middleware.ExampleService proof_size ETV
vector 275 World.node[147].appl.middleware.ExampleService proof_requested ETV
271	16521071	576.085950974864	32
270	16521071	576.085950974864	12
vector 276 World.node[148].appl.middleware.ExampleService proof_size ETV
vector 277 World.node[148].appl.middleware.ExampleService proof_requested ETV
vector 278 World.node[145].appl.middleware.ExampleService proof_size ETV
vector 279 World.node[145].appl.middleware.ExampleService proof_requested ETV
213	11445412	453.045275296154	46
213	14233979	513.045275296154	34
213	16413132	573.045275296154	35
212	11445412	453.045275296154	9
212	14233979	513.045275296154	11
212	16413132	573.045275296154	0
141	6445741	338.07353736693	36
141	8967176	398.07353736693	38
141	11735912	458.07353736693	45
141	14436793	518.07353736693	34
141	16582022	578.07353736693	28
140	6445741	338.07353736693	8
140	8967176	398.07353736693	11
140	11735912	458.07353736693	10
140	14436793	518.07353736693	4
140	16582022	578.07353736693	13
vector 280 World.node[149].appl.middleware.ExampleService proof_size ETV
vector 281 World.node[149].appl.middleware.ExampleService proof_requested ETV
vector 282 World.node[138].appl.middleware.ExampleService proof_size ETV
vector 283 World.node[138].appl.middleware.ExampleService proof_requested ETV
181	9133618	402.077598286606	34
181	11992425	462.077598286606	47
181	14598847	522.077598286606	42
181	16725214	582.077598286606	19
180	9133618	402.077598286606	10
180	11992425	462.077598286606	30
180	14598847	522.077598286606	23
180	16725214	582.077598286606	7
171	8003960	377.019962060661	34
171	10675643	437.019962060661	43
171	13624141	497.019962060661	43
171	15825643	557.019962060661	34
170	8003960	377.019962060661	11
170	10675643	437.019962060661	4
170	13624141	497.019962060661	8
170	15825643	557.019962060661	17
237	14398951	517.01177101261	40
237	16546427	577.01177101261	26
236	14398951	517.01177101261	10
236	16546427	577.01177101261	4
177	8820754	395.081715248618	42
177	11563333	455.081715248618	47
177	14324176	515.081715248618	36
177	16485296	575.081715248618	36
176	8820754	395.081715248618	1
176	11563333	455.081715248618	30
176	14324176	515.081715248618	2
176	16485296	575.081715248618	14
vector 284 World.node[150].appl.middleware.ExampleService proof_size ETV
vector 285 World.node[150].appl.middleware.ExampleService proof_requested ETV
189	10278207	429.031840899889	44
189	13316205	489.031840899889	44
189	15537218	549.031840899889	38
189	17781298	609.031840899889	39
188	10278207	429.031840899889	13
188	13316205	489.031840899889	22
188	15537218	549.031840899889	17
188	17781298	609.031840899889	29
199	10679162	437.068281329097	42
199	13629153	497.068281329097	43
199	15832914	557.068281329097	36
198	10679162	437.068281329097	2
198	13629153	497.068281329097	8
198	15832914	557.068281329097	0
175	8818570	395.069015022041	39
175	11560970	455.069015022041	45
175	14322183	515.069015022041	40
175	16481123	575.069015022041	38
174	8818570	395.069015022041	28
174	11560970	455.069015022041	0
174	14322183	515.069015022041	17
174	16481123	575.069015022041	20
191	10478922	433.008843115461	44
191	13479949	493.008843115461	40
191	15677714	553.008843115461	34
190	10478922	433.008843115461	6
190	13479949	493.008843115461	6
190	15677714	553.008843115461	6
219	12701070	476.038936882257	40
219	15097472	536.038936882257	42
219	17246816	596.038936882257	36
218	12701070	476.038936882257	14
218	15097472	536.038936882257	9
218	17246816	596.038936882257	11
285	17779127	609.006766036525	39
284	17779127	609.006766036525	18
vector 286 World.node[153].appl.middleware.ExampleService proof_size ETV
vector 287 World.node[153].appl.middleware.ExampleService proof_requested ETV
vector 288 World.node[146].appl.middleware.ExampleService proof_size ETV
vector 289 World.node[146].appl.middleware.ExampleService proof_requested ETV
251	15323629	543.07049246016	40
251	17535706	603.07049246016	39
250	15323629	543.07049246016	10
250	17535706	603.07049246016	18
243	15026857	534.003351440863	38
243	17143403	594.003351440863	37
242	15026857	534.003351440863	10
242	17143403	594.003351440863	16
vector 290 World.node[157].appl.middleware.ExampleService proof_size ETV
vector 291 World.node[157].appl.middleware.ExampleService proof_requested ETV
vector 292 World.node[156].appl.middleware.ExampleService proof_size ETV
vector 293 World.node[156].appl.middleware.ExampleService proof_requested ETV
169	7960152	376.022920599277	41
169	10625285	436.022920599277	41
169	13596057	496.022920599277	36
169	15796795	556.022920599277	38
169	17989169	616.022920599277	34
168	7960152	376.022920599277	23
168	10625285	436.022920599277	19
168	13596057	496.022920599277	8
168	15796795	556.022920599277	15
168	17989169	616.022920599277	15
vector 294 World.node[152].appl.middleware.ExampleService proof_size ETV
vector 295 World.node[152].appl.middleware.ExampleService proof_requested ETV
255	15826999	557.02865405886	38
255	18012034	617.02865405886	34
254	15826999	557.02865405886	18
254	18012034	617.02865405886	15
vector 296 World.node[159].appl.middleware.ExampleService proof_size ETV
vector 297 World.node[159].appl.middleware.ExampleService proof_requested ETV
147	6707028	344.035644653044	40
147	9206210	404.035644653044	40
147	12091105	464.035644653044	49
147	14659811	524.035644653044	41
147	16778091	584.035644653044	23
146	6707028	344.035644653044	13
146	9206210	404.035644653044	12
146	12091105	464.035644653044	17
146	14659811	524.035644653044	16
146	16778091	584.035644653044	7
vector 298 World.node[161].appl.middleware.ExampleService proof_size ETV
vector 299 World.node[161].appl.middleware.ExampleService proof_requested ETV
vector 300 World.node[163].appl.middleware.ExampleService proof_size ETV
vector 301 World.node[163].appl.middleware.ExampleService proof_requested ETV
vector 302 World.node[158].appl.middleware.ExampleService proof_size ETV
vector 303 World.node[158].appl.middleware.ExampleService proof_requested ETV
277	16996298	590.092444048962	40
277	18945361	650.092444048962	35
276	16996298	590.092444048962	19
276	18945361	650.092444048962	15
207	11063304	445.002562308242	45
207	13916374	505.002562308242	39
207	16117692	565.002562308242	38
207	18246115	625.002562308242	33
206	11063304	445.002562308242	7
206	13916374	505.002562308242	8
206	16117692	565.002562308242	4
206	18246115	625.002562308242	6
vector 304 World.node[167].appl.middleware.ExampleService proof_size ETV
vector 305 World.node[167].appl.middleware.ExampleService proof_requested ETV
vector 306 World.node[162].appl.middleware.ExampleService proof_size ETV
vector 307 World.node[162].appl.middleware.ExampleService proof_requested ETV
253	15726550	554.093083216459	40
253	17940360	614.093083216459	32
252	15726550	554.093083216459	15
252	17940360	614.093083216459	15
vector 308 World.node[155].appl.middleware.ExampleService proof_size ETV
vector 309 World.node[155].appl.middleware.ExampleService proof_requested ETV
vector 310 World.node[166].appl.middleware.ExampleService proof_size ETV
vector 311 World.node[166].appl.middleware.ExampleService proof_requested ETV
299	18814610	646.01744891589	36
298	18814610	646.01744891589	16
vector 312 World.node[160].appl.middleware.ExampleService proof_size ETV
vector 313 World.node[160].appl.middleware.ExampleService proof_requested ETV
vector 314 World.node[169].appl.middleware.ExampleService proof_size ETV
vector 315 World.node[169].appl.middleware.ExampleService proof_requested ETV
245	15127229	537.050028130156	38
245	17288589	597.050028130156	36
245	19170414	657.050028130156	36
244	15127229	537.050028130156	11
244	17288589	597.050028130156	23
244	19170414	657.050028130156	3
259	16014571	562.090134741133	39
259	18172560	622.090134741133	36
258	16014571	562.090134741133	16
258	18172560	622.090134741133	6
vector 316 World.node[170].appl.middleware.ExampleService proof_size ETV
vector 317 World.node[170].appl.middleware.ExampleService proof_requested ETV
vector 318 World.node[165].appl.middleware.ExampleService proof_size ETV
vector 319 World.node[165].appl.middleware.ExampleService proof_requested ETV
vector 320 World.node[173].appl.middleware.ExampleService proof_size ETV
vector 321 World.node[173].appl.middleware.ExampleService proof_requested ETV
223	13124316	485.026887058932	43
223	15384323	545.026887058932	41
223	17606212	605.026887058932	35
223	19418449	665.026887058932	37
222	13124316	485.026887058932	9
222	15384323	545.026887058932	15
222	17606212	605.026887058932	9
222	19418449	665.026887058932	9
209	11100654	446.040481015295	9
209	13959852	506.040481015295	40
209	16155766	566.040481015295	39
209	18262623	626.040481015295	36
209	20204154	686.040481015295	37
208	11100654	446.040481015295	4
208	13959852	506.040481015295	32
208	16155766	566.040481015295	23
208	18262623	626.040481015295	17
208	20204154	686.040481015295	22
vector 322 World.node[164].appl.middleware.ExampleService proof_size ETV
vector 323 World.node[164].appl.middleware.ExampleService proof_requested ETV
257	15935108	560.042273948342	35
257	18101698	620.042273948342	34
257	19919533	680.042273948342	31
256	15935108	560.042273948342	13
256	18101698	620.042273948342	12
256	19919533	680.042273948342	9
vector 324 World.node[177].appl.middleware.ExampleService proof_size ETV
vector 325 World.node[177].appl.middleware.ExampleService proof_requested ETV
295	18468383	634.049424721673	36
295	20581384	694.049424721673	24
294	18468383	634.049424721673	26
294	20581384	694.049424721673	14
241	14965367	532.043691058806	40
241	17071172	592.043691058806	37
241	19004009	652.043691058806	36
240	14965367	532.043691058806	9
240	17071172	592.043691058806	16
240	19004009	652.043691058806	12
275	16781394	584.072063610889	14
275	18756675	644.072063610889	34
274	16781394	584.072063610889	1
274	18756675	644.072063610889	11
293	18410540	632.00507100895	28
293	20487020	692.00507100895	39
292	18410540	632.00507100895	8
292	20487020	692.00507100895	23
vector 326 World.node[174].appl.middleware.ExampleService proof_size ETV
vector 327 World.node[174].appl.middleware.ExampleService proof_requested ETV
297	18719586	643.041409018752	35
297	20913020	703.041409018752	33
296	18719586	643.041409018752	11
296	20913020	703.041409018752	7
287	18194889	623.077751347912	32
287	20069186	683.077751347912	38
286	18194889	623.077751347912	23
286	20069186	683.077751347912	29
247	15161606	538.064065171801	39
247	17329249	598.064065171801	24
247	19200552	658.064065171801	36
246	15161606	538.064065171801	8
246	17329249	598.064065171801	3
246	19200552	658.064065171801	1
vector 328 World.node[168].appl.middleware.ExampleService proof_size ETV
vector 329 World.node[168].appl.middleware.ExampleService proof_requested ETV
211	11101623	446.044576701405	40
211	13960443	506.044576701405	39
211	16156344	566.044576701405	34
211	18262880	626.044576701405	36
211	20205625	686.044576701405	40
210	11101623	446.044576701405	15
210	13960443	506.044576701405	13
210	16156344	566.044576701405	13
210	18262880	626.044576701405	13
210	20205625	686.044576701405	27
273	16776722	584.017012975249	33
273	18753274	644.017012975249	34
273	20938432	704.017012975249	35
272	16776722	584.017012975249	12
272	18753274	644.017012975249	8
272	20938432	704.017012975249	15
vector 330 World.node[171].appl.middleware.ExampleService proof_size ETV
vector 331 World.node[171].appl.middleware.ExampleService proof_requested ETV
vector 332 World.node[172].appl.middleware.ExampleService proof_size ETV
vector 333 World.node[172].appl.middleware.ExampleService proof_requested ETV
vector 334 World.node[176].appl.middleware.ExampleService proof_size ETV
vector 335 World.node[176].appl.middleware.ExampleService proof_requested ETV
vector 336 World.node[185].appl.middleware.ExampleService proof_size ETV
vector 337 World.node[185].appl.middleware.ExampleService proof_requested ETV
vector 338 World.node[178].appl.middleware.ExampleService proof_size ETV
vector 339 World.node[178].appl.middleware.ExampleService proof_requested ETV
vector 340 World.node[181].appl.middleware.ExampleService proof_size ETV
vector 341 World.node[181].appl.middleware.ExampleService proof_requested ETV
263	16087152	564.070739548258	39
263	18224394	624.070739548258	34
263	20129842	684.070739548258	37
262	16087152	564.070739548258	9
262	18224394	624.070739548258	7
262	20129842	684.070739548258	32
329	21184538	711.091878135852	36
328	21184538	711.091878135852	14
vector 342 World.node[175].appl.middleware.ExampleService proof_size ETV
vector 343 World.node[175].appl.middleware.ExampleService proof_requested ETV
vector 344 World.node[184].appl.middleware.ExampleService proof_size ETV
vector 345 World.node[184].appl.middleware.ExampleService proof_requested ETV
283	17325869	598.02308724469	23
283	19197775	658.02308724469	36
283	21386301	718.02308724469	36
282	17325869	598.02308724469	6
282	19197775	658.02308724469	5
282	21386301	718.02308724469	5
vector 346 World.node[187].appl.middleware.ExampleService proof_size ETV
vector 347 World.node[187].appl.middleware.ExampleService proof_requested ETV
267	16363520	572.05068997487	38
267	18414417	632.05068997487	35
267	20493563	692.05068997487	37
266	16363520	572.05068997487	15
266	18414417	632.05068997487	1
266	20493563	692.05068997487	16
vector 348 World.node[179].appl.middleware.ExampleService proof_size ETV
vector 349 World.node[179].appl.middleware.ExampleService proof_requested ETV
289	18195157	623.092506333068	35
289	20070352	683.092506333068	38
289	22375656	743.092506333068	19
288	18195157	623.092506333068	12
288	20070352	683.092506333068	24
288	22375656	743.092506333068	8
vector 350 World.node[180].appl.middleware.ExampleService proof_size ETV
vector 351 World.node[180].appl.middleware.ExampleService proof_requested ETV
vector 352 World.node[183].appl.middleware.ExampleService proof_size ETV
vector 353 World.node[183].appl.middleware.ExampleService proof_requested ETV
225	13395210	491.077502301987	45
225	15605994	551.077502301987	38
225	17850501	611.077502301987	40
225	19617494	671.077502301987	38
225	21881985	731.077502301987	35
224	13395210	491.077502301987	2
224	15605994	551.077502301987	16
224	17850501	611.077502301987	23
224	19617494	671.077502301987	0
224	21881985	731.077502301987	5
vector 354 World.node[188].appl.middleware.ExampleService proof_size ETV
vector 355 World.node[188].appl.middleware.ExampleService proof_requested ETV
315	19616064	671.071283219848	35
315	21880534	731.071283219848	36
314	19616064	671.071283219848	12
314	21880534	731.071283219848	1
vector 356 World.node[182].appl.middleware.ExampleService proof_size ETV
vector 357 World.node[182].appl.middleware.ExampleService proof_requested ETV
291	18383018	631.078121898673	35
291	20446212	691.078121898673	39
291	22715690	751.078121898673	41
290	18383018	631.078121898673	9
290	20446212	691.078121898673	6
290	22715690	751.078121898673	12
vector 358 World.node[189].appl.middleware.ExampleService proof_size ETV
vector 359 World.node[189].appl.middleware.ExampleService proof_requested ETV
269	16410340	573.017386668106	38
269	18437533	633.017386668106	34
269	20530187	693.017386668106	41
269	22782425	753.017386668106	41
268	16410340	573.017386668106	14
268	18437533	633.017386668106	7
268	20530187	693.017386668106	15
268	22782425	753.017386668106	16
323	20535183	693.026654731645	40
323	22787423	753.026654731645	41
322	20535183	693.026654731645	0
322	22787423	753.026654731645	16
vector 360 World.node[186].appl.middleware.ExampleService proof_size ETV
vector 361 World.node[186].appl.middleware.ExampleService proof_requested ETV
265	16190258	567.059857467306	37
265	18283340	627.059857467306	35
265	20248785	687.059857467306	40
265	22531620	747.059857467306	39
264	16190258	567.059857467306	13
264	18283340	627.059857467306	6
264	20248785	687.059857467306	19
264	22531620	747.059857467306	17
vector 362 World.node[200].appl.middleware.ExampleService proof_size ETV
vector 363 World.node[200].appl.middleware.ExampleService proof_requested ETV
321	20131835	684.09079312298	37
321	22411598	744.09079312298	40
320	20131835	684.09079312298	23
320	22411598	744.09079312298	17
vector 364 World.node[190].appl.middleware.ExampleService proof_size ETV
vector 365 World.node[190].appl.middleware.ExampleService proof_requested ETV
vector 366 World.node[198].appl.middleware.ExampleService proof_size ETV
vector 367 World.node[198].appl.middleware.ExampleService proof_requested ETV
vector 368 World.node[194].appl.middleware.ExampleService proof_size ETV
vector 369 World.node[194].appl.middleware.ExampleService proof_requested ETV
vector 370 World.node[197].appl.middleware.ExampleService proof_size ETV
vector 371 World.node[197].appl.middleware.ExampleService proof_requested ETV
365	23909237	781.015216277796	39
364	23909237	781.015216277796	7
325	20647227	696.019558907999	39
325	22905312	756.019558907999	42
324	20647227	696.019558907999	14
324	22905312	756.019558907999	18
vector 372 World.node[196].appl.middleware.ExampleService proof_size ETV
vector 373 World.node[196].appl.middleware.ExampleService proof_requested ETV
303	19001800	652.015132946032	27
303	21208024	712.015132946032	34
303	23492064	772.015132946032	41
302	19001800	652.015132946032	3
302	21208024	712.015132946032	5
302	23492064	772.015132946032	9
vector 374 World.node[199].appl.middleware.ExampleService proof_size ETV
vector 375 World.node[199].appl.middleware.ExampleService proof_requested ETV
vector 376 World.node[191].appl.middleware.ExampleService proof_size ETV
vector 377 World.node[191].appl.middleware.ExampleService proof_requested ETV
vector 378 World.node[193].appl.middleware.ExampleService proof_size ETV
vector 379 World.node[193].appl.middleware.ExampleService proof_requested ETV
vector 380 World.node[195].appl.middleware.ExampleService proof_size ETV
vector 381 World.node[195].appl.middleware.ExampleService proof_requested ETV
vector 382 World.node[192].appl.middleware.ExampleService proof_size ETV
vector 383 World.node[192].appl.middleware.ExampleService proof_requested ETV
261	16015720	562.126046419167	23
261	18166788	622.026046419167	36
261	20028444	682.026046419167	36
261	22336561	742.026046419167	41
261	24683650	802.026046419167	42
260	16015720	562.126046419167	0
260	18166788	622.026046419167	12
260	20028444	682.026046419167	7
260	22336561	742.026046419167	15
260	24683650	802.026046419167	6
vector 384 World.node[204].appl.middleware.ExampleService proof_size ETV
vector 385 World.node[204].appl.middleware.ExampleService proof_requested ETV
307	19228953	659.01645370631	35
307	21426576	719.01645370631	34
307	23818333	779.01645370631	43
306	19228953	659.01645370631	4
306	21426576	719.01645370631	3
306	23818333	779.01645370631	11
369	24062822	785.03567577342	38
368	24062822	785.03567577342	0
vector 386 World.node[207].appl.middleware.ExampleService proof_size ETV
vector 387 World.node[207].appl.middleware.ExampleService proof_requested ETV
331	21236304	713.033042440074	31
331	23537366	773.033042440074	41
330	21236304	713.033042440074	7
330	23537366	773.033042440074	11
305	19109588	655.072183988593	36
305	21305187	715.072183988593	37
305	23639511	775.072183988593	42
304	19109588	655.072183988593	11
304	21305187	715.072183988593	12
304	23639511	775.072183988593	13
233	14293179	514.176037948183	18
233	16455182	574.076037948183	36
233	18469942	634.076037948183	36
233	20583682	694.076037948183	43
233	22837563	754.076037948183	40
233	25111255	814.076037948183	42
232	14293179	514.176037948183	0
232	16455182	574.076037948183	17
232	18469942	634.076037948183	17
232	20583682	694.076037948183	26
232	22837563	754.076037948183	0
232	25111255	814.076037948183	15
vector 388 World.node[202].appl.middleware.ExampleService proof_size ETV
vector 389 World.node[202].appl.middleware.ExampleService proof_requested ETV
363	23861256	780.01571675702	41
362	23861256	780.01571675702	13
vector 390 World.node[210].appl.middleware.ExampleService proof_size ETV
vector 391 World.node[210].appl.middleware.ExampleService proof_requested ETV
343	21878020	731.030653335806	34
343	24298787	791.030653335806	40
342	21878020	731.030653335806	16
342	24298787	791.030653335806	9
vector 392 World.node[206].appl.middleware.ExampleService proof_size ETV
vector 393 World.node[206].appl.middleware.ExampleService proof_requested ETV
vector 394 World.node[213].appl.middleware.ExampleService proof_size ETV
vector 395 World.node[213].appl.middleware.ExampleService proof_requested ETV
vector 396 World.node[209].appl.middleware.ExampleService proof_size ETV
vector 397 World.node[209].appl.middleware.ExampleService proof_requested ETV
327	20881744	702.063509989134	41
327	23129403	762.063509989134	42
327	25469425	822.063509989134	42
326	20881744	702.063509989134	19
326	23129403	762.063509989134	19
326	25469425	822.063509989134	17
vector 398 World.node[205].appl.middleware.ExampleService proof_size ETV
vector 399 World.node[205].appl.middleware.ExampleService proof_requested ETV
317	19873522	679.019934137212	19
317	22202121	739.019934137212	41
317	24579267	799.019934137212	38
316	19873522	679.019934137212	2
316	22202121	739.019934137212	13
316	24579267	799.019934137212	8
vector 400 World.node[214].appl.middleware.ExampleService proof_size ETV
vector 401 World.node[214].appl.middleware.ExampleService proof_requested ETV
371	24063125	785.041044609994	42
370	24063125	785.041044609994	2
vector 402 World.node[201].appl.middleware.ExampleService proof_size ETV
vector 403 World.node[201].appl.middleware.ExampleService proof_requested ETV
vector 404 World.node[211].appl.middleware.ExampleService proof_size ETV
vector 405 World.node[211].appl.middleware.ExampleService proof_requested ETV
vector 406 World.node[203].appl.middleware.ExampleService proof_size ETV
vector 407 World.node[203].appl.middleware.ExampleService proof_requested ETV
vector 408 World.node[208].appl.middleware.ExampleService proof_size ETV
vector 409 World.node[208].appl.middleware.ExampleService proof_requested ETV
vector 410 World.node[212].appl.middleware.ExampleService proof_size ETV
vector 411 World.node[212].appl.middleware.ExampleService proof_requested ETV
vector 412 World.node[216].appl.middleware.ExampleService proof_size ETV
vector 413 World.node[216].appl.middleware.ExampleService proof_requested ETV
349	22448473	745.0060570003	39
349	24784272	805.0060570003	33
348	22448473	745.0060570003	6
348	24784272	805.0060570003	4
vector 414 World.node[217].appl.middleware.ExampleService proof_size ETV
vector 415 World.node[217].appl.middleware.ExampleService proof_requested ETV
367	23954173	782.079748264072	31
367	26353545	842.079748264072	41
366	23954173	782.079748264072	6
366	26353545	842.079748264072	8
341	21565091	723.051370129571	18
341	23990537	783.051370129571	42
341	26393888	843.051370129571	42
340	21565091	723.051370129571	8
340	23990537	783.051370129571	1
340	26393888	843.051370129571	0
359	23453335	771.005495680263	32
359	25839443	831.005495680263	43
358	23453335	771.005495680263	12
358	25839443	831.005495680263	14
333	21330984	716.042136845156	28
333	23679080	776.042136845156	41
333	26064683	836.042136845156	44
332	21330984	716.042136845156	8
332	23679080	776.042136845156	15
332	26064683	836.042136845156	15
357	23072981	760.092069279426	35
357	25383523	820.092069279426	41
356	23072981	760.092069279426	13
356	25383523	820.092069279426	9
385	24829597	806.099138583988	36
384	24829597	806.099138583988	12
279	17075411	592.089977152506	32
279	19007605	652.089977152506	36
279	21217278	712.089977152506	38
279	23499201	772.089977152506	41
279	25886079	832.089977152506	43
278	17075411	592.089977152506	19
278	19007605	652.089977152506	0
278	21217278	712.089977152506	12
278	23499201	772.089977152506	7
278	25886079	832.089977152506	16
vector 416 World.node[223].appl.middleware.ExampleService proof_size ETV
vector 417 World.node[223].appl.middleware.ExampleService proof_requested ETV
309	19294048	661.071826160885	36
309	21496500	721.071826160885	36
309	23913640	781.071826160885	41
309	26309307	841.071826160885	43
308	19294048	661.071826160885	13
308	21496500	721.071826160885	8
308	23913640	781.071826160885	2
308	26309307	841.071826160885	1
vector 418 World.node[221].appl.middleware.ExampleService proof_size ETV
vector 419 World.node[221].appl.middleware.ExampleService proof_requested ETV
311	19416307	665.008055379009	36
311	21632293	725.008055379009	39
311	24059821	785.008055379009	40
311	26467175	845.008055379009	43
310	19416307	665.008055379009	3
310	21632293	725.008055379009	6
310	24059821	785.008055379009	4
310	26467175	845.008055379009	7
vector 420 World.node[226].appl.middleware.ExampleService proof_size ETV
vector 421 World.node[226].appl.middleware.ExampleService proof_requested ETV
vector 422 World.node[228].appl.middleware.ExampleService proof_size ETV
vector 423 World.node[228].appl.middleware.ExampleService proof_requested ETV
375	24266724	790.047451588116	42
375	26703752	850.047451588116	42
374	24266724	790.047451588116	13
374	26703752	850.047451588116	19
vector 424 World.node[215].appl.middleware.ExampleService proof_size ETV
vector 425 World.node[215].appl.middleware.ExampleService proof_requested ETV
351	22575512	748.095210134611	32
351	24893856	808.095210134611	41
351	27495357	868.095210134611	43
350	22575512	748.095210134611	14
350	24893856	808.095210134611	13
350	27495357	868.095210134611	20
413	26556507	847.011278539151	43
412	26556507	847.011278539151	5
337	21497934	721.081114433706	31
337	23915430	781.081114433706	43
337	26315063	841.081114433706	43
336	21497934	721.081114433706	1
336	23915430	781.081114433706	13
336	26315063	841.081114433706	0
381	24516206	797.056169501622	40
381	27002321	857.056169501622	43
380	24516206	797.056169501622	0
380	27002321	857.056169501622	25
383	24517993	797.07872417809	39
383	27004518	857.07872417809	36
382	24517993	797.07872417809	8
382	27004518	857.07872417809	16
vector 426 World.node[227].appl.middleware.ExampleService proof_size ETV
vector 427 World.node[227].appl.middleware.ExampleService proof_requested ETV
vector 428 World.node[220].appl.middleware.ExampleService proof_size ETV
vector 429 World.node[220].appl.middleware.ExampleService proof_requested ETV
319	20031387	682.048644545558	33
319	22337141	742.048644545558	36
319	24684260	802.048644545558	38
319	27222717	862.048644545558	40
318	20031387	682.048644545558	16
318	22337141	742.048644545558	1
318	24684260	802.048644545558	0
318	27222717	862.048644545558	18
vector 430 World.node[218].appl.middleware.ExampleService proof_size ETV
vector 431 World.node[218].appl.middleware.ExampleService proof_requested ETV
vector 432 World.node[231].appl.middleware.ExampleService proof_size ETV
vector 433 World.node[231].appl.middleware.ExampleService proof_requested ETV
313	19614931	671.04858187132	24
313	21879145	731.04858187132	37
313	24299925	791.04858187132	41
313	26746439	851.04858187132	40
313	29280350	911.04858187132	24
312	19614931	671.04858187132	8
312	21879145	731.04858187132	2
312	24299925	791.04858187132	6
312	26746439	851.04858187132	17
312	29280350	911.04858187132	11
vector 434 World.node[229].appl.middleware.ExampleService proof_size ETV
vector 435 World.node[229].appl.middleware.ExampleService proof_requested ETV
355	23020827	759.007070858986	42
355	25326235	819.007070858986	42
355	27961295	879.007070858986	41
354	23020827	759.007070858986	13
354	25326235	819.007070858986	13
354	27961295	879.007070858986	23
vector 436 World.node[224].appl.middleware.ExampleService proof_size ETV
vector 437 World.node[224].appl.middleware.ExampleService proof_requested ETV
377	24407239	794.096436620969	35
377	26874180	854.096436620969	42
377	29405967	914.096436620969	23
376	24407239	794.096436620969	3
376	26874180	854.096436620969	7
376	29405967	914.096436620969	3
411	26471902	845.059402639442	38
411	29030831	905.059402639442	35
410	26471902	845.059402639442	0
410	29030831	905.059402639442	0
301	18843534	647.075599625334	35
301	21041118	707.075599625334	37
301	23296358	767.075599625334	40
301	25671173	827.075599625334	44
301	28357750	887.075599625334	42
300	18843534	647.075599625334	14
300	21041118	707.075599625334	15
300	23296358	767.075599625334	14
300	25671173	827.075599625334	20
300	28357750	887.075599625334	20
vector 438 World.node[234].appl.middleware.ExampleService proof_size ETV
vector 439 World.node[234].appl.middleware.ExampleService proof_requested ETV
vector 440 World.node[239].appl.middleware.ExampleService proof_size ETV
vector 441 World.node[239].appl.middleware.ExampleService proof_requested ETV
347	22165161	738.076796356868	40
347	24549049	798.076796356868	38
347	27046894	858.076796356868	39
347	29558344	918.076796356868	26
346	22165161	738.076796356868	17
346	24549049	798.076796356868	13
346	27046894	858.076796356868	14
346	29558344	918.076796356868	12
vector 442 World.node[235].appl.middleware.ExampleService proof_size ETV
vector 443 World.node[235].appl.middleware.ExampleService proof_requested ETV
399	26035234	835.070173776662	36
399	28690505	895.070173776662	39
398	26035234	835.070173776662	12
398	28690505	895.070173776662	16
vector 444 World.node[237].appl.middleware.ExampleService proof_size ETV
vector 445 World.node[237].appl.middleware.ExampleService proof_requested ETV
vector 446 World.node[236].appl.middleware.ExampleService proof_size ETV
vector 447 World.node[236].appl.middleware.ExampleService proof_requested ETV
vector 448 World.node[230].appl.middleware.ExampleService proof_size ETV
vector 449 World.node[230].appl.middleware.ExampleService proof_requested ETV
401	26102140	837.014548798115	34
401	28742185	897.014548798115	37
400	26102140	837.014548798115	15
400	28742185	897.014548798115	12
vector 450 World.node[232].appl.middleware.ExampleService proof_size ETV
vector 451 World.node[232].appl.middleware.ExampleService proof_requested ETV
353	22745167	752.038371665613	36
353	25028372	812.038371665613	42
353	27641442	872.038371665613	42
353	29987202	932.038371665613	38
352	22745167	752.038371665613	16
352	25028372	812.038371665613	9
352	27641442	872.038371665613	0
352	29987202	932.038371665613	27
345	21963139	733.084780710447	27
345	24372323	793.084780710447	39
345	26832496	853.084780710447	44
345	29365883	913.084780710447	37
344	21963139	733.084780710447	12
344	24372323	793.084780710447	16
344	26832496	853.084780710447	16
344	29365883	913.084780710447	19
281	17288026	597.046179865696	33
281	19169895	657.046179865696	37
281	21359492	717.046179865696	33
281	23726266	777.046179865696	41
281	26104608	837.046179865696	39
281	28744213	897.046179865696	28
280	17288026	597.046179865696	18
280	19169895	657.046179865696	11
280	21359492	717.046179865696	9
280	23726266	777.046179865696	16
280	26104608	837.046179865696	12
280	28744213	897.046179865696	2
389	25382934	820.088751887949	21
389	28037090	880.088751887949	44
389	30270046	940.088751887949	42
388	25382934	820.088751887949	9
388	28037090	880.088751887949	25
388	30270046	940.088751887949	1
vector 452 World.node[244].appl.middleware.ExampleService proof_size ETV
vector 453 World.node[244].appl.middleware.ExampleService proof_requested ETV
421	28195770	883.063490475225	44
421	30385055	943.063490475225	28
420	28195770	883.063490475225	21
420	30385055	943.063490475225	6
427	28957219	903.026988914586	41
426	28957219	903.026988914586	9
361	23687217	776.090276177297	40
361	26069595	836.090276177297	44
361	28716008	896.090276177297	41
361	30886821	956.090276177297	42
360	23687217	776.090276177297	0
360	26069595	836.090276177297	24
360	28716008	896.090276177297	7
360	30886821	956.090276177297	6
vector 454 World.node[240].appl.middleware.ExampleService proof_size ETV
vector 455 World.node[240].appl.middleware.ExampleService proof_requested ETV
405	26393570	843.046566005819	42
405	28959174	903.046566005819	41
405	31152996	963.046566005819	38
404	26393570	843.046566005819	17
404	28959174	903.046566005819	0
404	31152996	963.046566005819	0
407	26436500	844.013168517686	39
407	28991629	904.013168517686	41
407	31180372	964.013168517686	38
406	26436500	844.013168517686	7
406	28991629	904.013168517686	3
406	31180372	964.013168517686	8
397	25879281	832.070065890579	43
397	28572285	892.070065890579	40
397	30730343	952.070065890579	38
396	25879281	832.070065890579	9
396	28572285	892.070065890579	13
396	30730343	952.070065890579	4
vector 456 World.node[243].appl.middleware.ExampleService proof_size ETV
vector 457 World.node[243].appl.middleware.ExampleService proof_requested ETV
vector 458 World.node[246].appl.middleware.ExampleService proof_size ETV
vector 459 World.node[246].appl.middleware.ExampleService proof_requested ETV
vector 460 World.node[241].appl.middleware.ExampleService proof_size ETV
vector 461 World.node[241].appl.middleware.ExampleService proof_requested ETV
431	29156367	908.03030381205	37
431	31337093	968.03030381205	27
430	29156367	908.03030381205	9
430	31337093	968.03030381205	10
461	31722212	980.012529816572	29
460	31722212	980.012529816572	6
vector 462 World.node[242].appl.middleware.ExampleService proof_size ETV
vector 463 World.node[242].appl.middleware.ExampleService proof_requested ETV
373	24196299	788.089386306936	38
373	26620767	848.089386306936	43
373	29162900	908.089386306936	40
373	31344705	968.089386306936	37
372	24196299	788.089386306936	16
372	26620767	848.089386306936	15
372	29162900	908.089386306936	5
372	31344705	968.089386306936	9
vector 464 World.node[247].appl.middleware.ExampleService proof_size ETV
vector 465 World.node[247].appl.middleware.ExampleService proof_requested ETV
339	21563994	723.040363938804	37
339	23989345	783.040363938804	42
339	26392619	843.040363938804	43
339	28958356	903.040363938804	33
339	31152183	963.040363938804	31
338	21563994	723.040363938804	11
338	23989345	783.040363938804	16
338	26392619	843.040363938804	24
338	28958356	903.040363938804	1
338	31152183	963.040363938804	17
403	26308353	841.063930083718	43
403	28887053	901.063930083718	41
403	31081252	961.063930083718	26
402	26308353	841.063930083718	18
402	28887053	901.063930083718	0
402	31081252	961.063930083718	7
409	26468752	845.016715024714	43
409	29023885	905.016715024714	34
409	31209105	965.016715024714	32
408	26468752	845.016715024714	3
408	29023885	905.016715024714	5
408	31209105	965.016715024714	7
vector 466 World.node[248].appl.middleware.ExampleService proof_size ETV
vector 467 World.node[248].appl.middleware.ExampleService proof_requested ETV
vector 468 World.node[251].appl.middleware.ExampleService proof_size ETV
vector 469 World.node[251].appl.middleware.ExampleService proof_requested ETV
vector 470 World.node[249].appl.middleware.ExampleService proof_size ETV
vector 471 World.node[249].appl.middleware.ExampleService proof_requested ETV
415	26701825	850.026242497703	38
415	29234442	910.026242497703	33
415	31409356	970.026242497703	38
414	26701825	850.026242497703	10
414	29234442	910.026242497703	8
414	31409356	970.026242497703	14
433	29205607	909.092299146298	33
433	31380698	969.092299146298	33
432	29205607	909.092299146298	19
432	31380698	969.092299146298	13
429	28960253	903.052290531062	42
429	31153275	963.052290531062	36
428	28960253	903.052290531062	0
428	31153275	963.052290531062	14
vector 472 World.node[255].appl.middleware.ExampleService proof_size ETV
vector 473 World.node[255].appl.middleware.ExampleService proof_requested ETV
vector 474 World.node[256].appl.middleware.ExampleService proof_size ETV
vector 475 World.node[256].appl.middleware.ExampleService proof_requested ETV
vector 476 World.node[245].appl.middleware.ExampleService proof_size ETV
vector 477 World.node[245].appl.middleware.ExampleService proof_requested ETV
449	30623668	949.08330285009	38
449	32542111	1009.08330285009	36
448	30623668	949.08330285009	12
448	32542111	1009.08330285009	3
425	28282265	885.072165874625	43
425	30467833	945.072165874625	34
425	32415745	1005.072165874625	25
424	28282265	885.072165874625	22
424	30467833	945.072165874625	11
424	32415745	1005.072165874625	12
vector 478 World.node[252].appl.middleware.ExampleService proof_size ETV
vector 479 World.node[252].appl.middleware.ExampleService proof_requested ETV
393	25671487	827.083547969954	39
393	28358939	887.083547969954	39
393	30538728	947.083547969954	44
393	32476877	1007.083547969954	34
392	25671487	827.083547969954	1
392	28358939	887.083547969954	3
392	30538728	947.083547969954	17
392	32476877	1007.083547969954	18
447	30535527	947.045001865295	35
447	32473255	1007.045001865295	34
446	30535527	947.045001865295	19
446	32473255	1007.045001865295	13
vector 480 World.node[250].appl.middleware.ExampleService proof_size ETV
vector 481 World.node[250].appl.middleware.ExampleService proof_requested ETV
395	25876429	832.024025464756	42
395	28568250	892.024025464756	41
395	30725792	952.024025464756	40
395	32628043	1012.024025464756	22
394	25876429	832.024025464756	10
394	28568250	892.024025464756	9
394	30725792	952.024025464756	10
394	32628043	1012.024025464756	7
vector 482 World.node[254].appl.middleware.ExampleService proof_size ETV
vector 483 World.node[254].appl.middleware.ExampleService proof_requested ETV
vector 484 World.node[261].appl.middleware.ExampleService proof_size ETV
vector 485 World.node[261].appl.middleware.ExampleService proof_requested ETV
379	24513262	797.012661844422	38
379	26997313	857.012661844422	43
379	29517302	917.012661844422	38
379	31639535	977.012661844422	21
379	33286137	1037.012661844422	33
378	24513262	797.012661844422	4
378	26997313	857.012661844422	10
378	29517302	917.012661844422	5
378	31639535	977.012661844422	3
378	33286137	1037.012661844422	6
vector 486 World.node[253].appl.middleware.ExampleService proof_size ETV
vector 487 World.node[253].appl.middleware.ExampleService proof_requested ETV
387	25027783	812.032455844851	45
387	27641129	872.032455844851	41
387	29986915	932.032455844851	35
387	32006944	992.032455844851	34
386	25027783	812.032455844851	15
386	27641129	872.032455844851	14
386	29986915	932.032455844851	17
386	32006944	992.032455844851	10
vector 488 World.node[258].appl.middleware.ExampleService proof_size ETV
vector 489 World.node[258].appl.middleware.ExampleService proof_requested ETV
vector 490 World.node[267].appl.middleware.ExampleService proof_size ETV
vector 491 World.node[267].appl.middleware.ExampleService proof_requested ETV
391	25552481	824.087589678937	42
391	28234243	884.087589678937	42
391	30423686	944.087589678937	39
391	32376643	1004.087589678937	19
390	25552481	824.087589678937	19
390	28234243	884.087589678937	19
390	30423686	944.087589678937	13
390	32376643	1004.087589678937	10
467	32094830	995.021459221886	22
467	33887570	1055.021459221886	38
466	32094830	995.021459221886	11
466	33887570	1055.021459221886	17
335	21492623	721.018796307524	36
335	23910352	781.018796307524	39
335	26307392	841.018796307524	42
335	28886222	901.018796307524	38
335	31079540	961.018796307524	35
335	32877633	1021.018796307524	24
334	21492623	721.018796307524	14
334	23910352	781.018796307524	1
334	26307392	841.018796307524	25
334	28886222	901.018796307524	2
334	31079540	961.018796307524	7
334	32877633	1021.018796307524	3
vector 492 World.node[260].appl.middleware.ExampleService proof_size ETV
vector 493 World.node[260].appl.middleware.ExampleService proof_requested ETV
vector 494 World.node[257].appl.middleware.ExampleService proof_size ETV
vector 495 World.node[257].appl.middleware.ExampleService proof_requested ETV
423	28200121	883.122432907275	23
423	30382373	943.022432907275	29
423	32345360	1003.022432907275	32
423	34185995	1063.022432907275	31
422	28200121	883.122432907275	3
422	30382373	943.022432907275	6
422	32345360	1003.022432907275	18
422	34185995	1063.022432907275	14
479	32882081	1021.069507339015	28
478	32882081	1021.069507339015	9
445	30466672	945.056596363289	37
445	32414691	1005.056596363289	35
445	34243475	1065.056596363289	37
444	30466672	945.056596363289	11
444	32414691	1005.056596363289	18
444	34243475	1065.056596363289	8
vector 496 World.node[259].appl.middleware.ExampleService proof_size ETV
vector 497 World.node[259].appl.middleware.ExampleService proof_requested ETV
481	33049278	1028.004143649922	34
480	33049278	1028.004143649922	16
vector 498 World.node[263].appl.middleware.ExampleService proof_size ETV
vector 499 World.node[263].appl.middleware.ExampleService proof_requested ETV
463	31888570	987.069596450264	31
463	33622660	1047.069596450264	22
462	31888570	987.069596450264	10
462	33622660	1047.069596450264	8
499	34316066	1068.017652466125	31
498	34316066	1068.017652466125	14
vector 500 World.node[266].appl.middleware.ExampleService proof_size ETV
vector 501 World.node[266].appl.middleware.ExampleService proof_requested ETV
vector 502 World.node[262].appl.middleware.ExampleService proof_size ETV
vector 503 World.node[262].appl.middleware.ExampleService proof_requested ETV
vector 504 World.node[272].appl.middleware.ExampleService proof_size ETV
vector 505 World.node[272].appl.middleware.ExampleService proof_requested ETV
vector 506 World.node[269].appl.middleware.ExampleService proof_size ETV
vector 507 World.node[269].appl.middleware.ExampleService proof_requested ETV
vector 508 World.node[264].appl.middleware.ExampleService proof_size ETV
vector 509 World.node[264].appl.middleware.ExampleService proof_requested ETV
441	30190729	938.072665216518	28
441	32190629	998.072665216518	31
441	34006206	1058.072665216518	39
440	30190729	938.072665216518	14
440	32190629	998.072665216518	18
440	34006206	1058.072665216518	23
489	33658143	1048.026584161562	26
488	33658143	1048.026584161562	8
vector 510 World.node[273].appl.middleware.ExampleService proof_size ETV
vector 511 World.node[273].appl.middleware.ExampleService proof_requested ETV
vector 512 World.node[268].appl.middleware.ExampleService proof_size ETV
vector 513 World.node[268].appl.middleware.ExampleService proof_requested ETV
vector 514 World.node[265].appl.middleware.ExampleService proof_size ETV
vector 515 World.node[265].appl.middleware.ExampleService proof_requested ETV
455	31439998	971.022997867526	32
455	33120277	1031.022997867526	35
454	31439998	971.022997867526	10
454	33120277	1031.022997867526	9
435	29520329	917.040482123429	28
435	31645168	977.040482123429	34
435	33289544	1037.040482123429	36
434	29520329	917.040482123429	7
434	31645168	977.040482123429	10
434	33289544	1037.040482123429	1
473	32631041	1012.055787704373	36
473	34428980	1072.055787704373	29
472	32631041	1012.055787704373	2
472	34428980	1072.055787704373	6
439	30048017	934.06414834857	41
439	32072531	994.06414834857	34
439	33865669	1054.06414834857	34
438	30048017	934.06414834857	11
438	32072531	994.06414834857	9
438	33865669	1054.06414834857	16
[...]
vector 1769 World.node[928].appl.middleware.ExampleService proof_requested ETV
vector 1770 World.node[920].appl.middleware.ExampleService proof_size ETV
vector 1771 World.node[920].appl.middleware.ExampleService proof_requested ETV
vector 1772 World.node[919].appl.middleware.ExampleService proof_size ETV
vector 1773 World.node[919].appl.middleware.ExampleService proof_requested ETV
vector 1774 World.node[925].appl.middleware.ExampleService proof_size ETV
vector 1775 World.node[925].appl.middleware.ExampleService proof_requested ETV
1735	143805901	3485.044797448325	55
1735	146772058	3545.044797448325	48
1734	143805901	3485.044797448325	20
1734	146772058	3545.044797448325	0
1673	135354701	3367.08073413705	33
1673	139889501	3427.08073413705	54
1673	143943080	3487.08073413705	52
1673	146873586	3547.08073413705	37
1672	135354701	3367.08073413705	1
1672	139889501	3427.08073413705	1
1672	143943080	3487.08073413705	1
1672	146873586	3547.08073413705	12
1693	138426286	3406.022532324446	55
1693	142467539	3466.022532324446	53
1693	145919165	3526.022532324446	44
1692	138426286	3406.022532324446	26
1692	142467539	3466.022532324446	17
1692	145919165	3526.022532324446	7
1725	142104386	3461.064780010469	51
1725	145629916	3521.064780010469	38
1724	142104386	3461.064780010469	14
1724	145629916	3521.064780010469	17
1701	139729378	3425.05299725295	58
1701	143807893	3485.05299725295	54
1701	146774562	3545.05299725295	46
1700	139729378	3425.05299725295	24
1700	143807893	3485.05299725295	1
1700	146774562	3545.05299725295	28
1731	142816394	3471.016696560755	47
1731	146143929	3531.016696560755	38
1730	142816394	3471.016696560755	24
1730	146143929	3531.016696560755	16
vector 1776 World.node[934].appl.middleware.ExampleService proof_size ETV
vector 1777 World.node[934].appl.middleware.ExampleService proof_requested ETV
1621	128685428	3263.043616289855	48
1621	132319357	3323.043616289855	55
1621	136452572	3383.043616289855	59
1621	140981783	3443.043616289855	52
1621	144771727	3503.043616289855	37
1621	147711908	3563.043616289855	30
1620	128685428	3263.043616289855	0
1620	132319357	3323.043616289855	22
1620	136452572	3383.043616289855	16
1620	140981783	3443.043616289855	28
1620	144771727	3503.043616289855	0
1620	147711908	3563.043616289855	7
vector 1778 World.node[923].appl.middleware.ExampleService proof_size ETV
vector 1779 World.node[923].appl.middleware.ExampleService proof_requested ETV
1647	132399682	3324.04849517548	52
1647	136520881	3384.04849517548	52
1647	141037669	3444.04849517548	51
1647	144811164	3504.04849517548	49
1647	147764069	3564.04849517548	42
1646	132399682	3324.04849517548	19
1646	136520881	3384.04849517548	23
1646	141037669	3444.04849517548	17
1646	144811164	3504.04849517548	14
1646	147764069	3564.04849517548	16
1737	144471258	3497.03789858697	49
1737	147384183	3557.03789858697	31
1736	144471258	3497.03789858697	0
1736	147384183	3557.03789858697	0
1691	138425911	3406.017112124874	58
1691	142467143	3466.017112124874	51
1691	145918823	3526.017112124874	43
1690	138425911	3406.017112124874	1
1690	142467143	3466.017112124874	11
1690	145918823	3526.017112124874	7
vector 1780 World.node[927].appl.middleware.ExampleService proof_size ETV
vector 1781 World.node[927].appl.middleware.ExampleService proof_requested ETV
vector 1782 World.node[933].appl.middleware.ExampleService proof_size ETV
vector 1783 World.node[933].appl.middleware.ExampleService proof_requested ETV
1577	125075353	3185.055946156289	44
1577	127706139	3245.055946156289	43
1577	131233839	3305.055946156289	52
1577	135205594	3365.055946156289	53
1577	139729803	3425.055946156289	60
1577	143808542	3485.055946156289	51
1577	146774564	3545.055946156289	43
1576	125075353	3185.055946156289	16
1576	127706139	3245.055946156289	18
1576	131233839	3305.055946156289	17
1576	135205594	3365.055946156289	17
1576	139729803	3425.055946156289	24
1576	143808542	3485.055946156289	1
1576	146774564	3545.055946156289	12
1767	146822902	3546.080350563396	31
1766	146822902	3546.080350563396	6
vector 1784 World.node[931].appl.middleware.ExampleService proof_size ETV
vector 1785 World.node[931].appl.middleware.ExampleService proof_requested ETV
vector 1786 World.node[932].appl.middleware.ExampleService proof_size ETV
vector 1787 World.node[932].appl.middleware.ExampleService proof_requested ETV
vector 1788 World.node[937].appl.middleware.ExampleService proof_size ETV
vector 1789 World.node[937].appl.middleware.ExampleService proof_requested ETV
1741	144476387	3497.075305584772	46
1741	147389161	3557.075305584772	43
1740	144476387	3497.075305584772	8
1740	147389161	3557.075305584772	9
vector 1790 World.node[938].appl.middleware.ExampleService proof_size ETV
vector 1791 World.node[938].appl.middleware.ExampleService proof_requested ETV
vector 1792 World.node[930].appl.middleware.ExampleService proof_size ETV
vector 1793 World.node[930].appl.middleware.ExampleService proof_requested ETV
1571	124718826	3176.051326513663	37
1571	127298247	3236.051326513663	41
1571	130614044	3296.051326513663	51
1571	134635805	3356.051326513663	50
1571	139077788	3416.051326513663	56
1571	143163423	3476.051326513663	57
1571	146359715	3536.051326513663	44
1571	149164628	3596.051326513663	45
1570	124718826	3176.051326513663	12
1570	127298247	3236.051326513663	8
1570	130614044	3296.051326513663	9
1570	134635805	3356.051326513663	18
1570	139077788	3416.051326513663	19
1570	143163423	3476.051326513663	25
1570	146359715	3536.051326513663	18
1570	149164628	3596.051326513663	12
vector 1794 World.node[936].appl.middleware.ExampleService proof_size ETV
vector 1795 World.node[936].appl.middleware.ExampleService proof_requested ETV
1719	141212244	3447.050325849629	39
1719	144936635	3507.050325849629	42
1719	147916626	3567.050325849629	50
1718	141212244	3447.050325849629	18
1718	144936635	3507.050325849629	12
1718	147916626	3567.050325849629	15
vector 1796 World.node[943].appl.middleware.ExampleService proof_size ETV
vector 1797 World.node[943].appl.middleware.ExampleService proof_requested ETV
1705	139911622	3427.169695657631	20
1705	143940771	3487.069695657631	54
1705	146871837	3547.069695657631	45
1705	149629025	3607.069695657631	43
1704	139911622	3427.169695657631	0
1704	143940771	3487.069695657631	18
1704	146871837	3547.069695657631	0
1704	149629025	3607.069695657631	23
1759	145920210	3526.042541779066	44
1759	148802011	3586.042541779066	41
1758	145920210	3526.042541779066	4
1758	148802011	3586.042541779066	0
vector 1798 World.node[935].appl.middleware.ExampleService proof_size ETV
vector 1799 World.node[935].appl.middleware.ExampleService proof_requested ETV
vector 1800 World.node[942].appl.middleware.ExampleService proof_size ETV
vector 1801 World.node[942].appl.middleware.ExampleService proof_requested ETV
1733	143381000	3479.01084291928	53
1733	146472250	3539.01084291928	42
1733	149260995	3599.01084291928	29
1732	143381000	3479.01084291928	11
1732	146472250	3539.01084291928	6
1732	149260995	3599.01084291928	0
1765	146768286	3545.00341558021	46
1765	149531598	3605.00341558021	44
1764	146768286	3545.00341558021	3
1764	149531598	3605.00341558021	6
1643	131351606	3307.011089177942	46
1643	135345150	3367.011089177942	54
1643	139877166	3427.011089177942	58
1643	143931206	3487.011089177942	48
1643	146860694	3547.011089177942	35
1643	149619039	3607.011089177942	39
1642	131351606	3307.011089177942	12
1642	135345150	3367.011089177942	13
1642	139877166	3427.011089177942	14
1642	143931206	3487.011089177942	13
1642	146860694	3547.011089177942	4
1642	149619039	3607.011089177942	22
1775	147516303	3559.071411676821	50
1775	150190962	3619.071411676821	30
1774	147516303	3559.071411676821	12
1774	150190962	3619.071411676821	7
1601	126892282	3227.099998441082	40
1601	130102522	3287.099998441082	52
1601	134045808	3347.099998441082	55
1601	138505061	3407.099998441082	58
1601	142543597	3467.099998441082	54
1601	145969793	3527.099998441082	45
1601	148834755	3587.099998441082	43
1600	126892282	3227.099998441082	10
1600	130102522	3287.099998441082	9
1600	134045808	3347.099998441082	9
1600	138505061	3407.099998441082	8
1600	142543597	3467.099998441082	21
1600	145969793	3527.099998441082	22
1600	148834755	3587.099998441082	2
1795	149378818	3602.017040981096	40
1794	149378818	3602.017040981096	10
1729	142464071	3466.003960215091	21
1729	145916803	3526.003960215091	36
1729	148799515	3586.003960215091	45
1728	142464071	3466.003960215091	7
1728	145916803	3526.003960215091	13
1728	148799515	3586.003960215091	5
1739	144473665	3497.061205752497	49
1739	147387698	3557.061205752497	47
1739	150090001	3617.061205752497	31
1738	144473665	3497.061205752497	0
1738	147387698	3557.061205752497	0
1738	150090001	3617.061205752497	14
vector 1802 World.node[939].appl.middleware.ExampleService proof_size ETV
vector 1803 World.node[939].appl.middleware.ExampleService proof_requested ETV
vector 1804 World.node[940].appl.middleware.ExampleService proof_size ETV
vector 1805 World.node[940].appl.middleware.ExampleService proof_requested ETV
vector 1806 World.node[941].appl.middleware.ExampleService proof_size ETV
vector 1807 World.node[941].appl.middleware.ExampleService proof_requested ETV
1771	147290963	3555.080563717755	47
1771	150009039	3615.080563717755	44
1770	147290963	3555.080563717755	31
1770	150009039	3615.080563717755	30
1779	148159509	3572.056439728104	47
1779	150595701	3632.056439728104	31
1778	148159509	3572.056439728104	19
1778	150595701	3632.056439728104	8
1783	148766315	3585.019622834935	44
1783	150958980	3645.019622834935	34
1782	148766315	3585.019622834935	10
1782	150958980	3645.019622834935	11
1743	144683476	3501.065630609845	43
1743	147611854	3561.065630609845	48
1743	150261330	3621.065630609845	42
1742	144683476	3501.065630609845	20
1742	147611854	3561.065630609845	20
1742	150261330	3621.065630609845	21
1597	126744934	3224.044574693078	36
1597	129911998	3284.044574693078	51
1597	133788487	3344.044574693078	54
1597	138270055	3404.044574693078	59
1597	142320208	3464.044574693078	54
1597	145814365	3524.044574693078	46
1597	148721302	3584.044574693078	44
1597	150933767	3644.044574693078	30
1596	126744934	3224.044574693078	12
1596	129911998	3284.044574693078	15
1596	133788487	3344.044574693078	15
1596	138270055	3404.044574693078	21
1596	142320208	3464.044574693078	12
1596	145814365	3524.044574693078	12
1596	148721302	3584.044574693078	11
1596	150933767	3644.044574693078	1
1721	141878196	3458.097432616912	35
1721	145478942	3518.097432616912	48
1721	148460794	3578.097432616912	41
1721	150777915	3638.097432616912	35
1720	141878196	3458.097432616912	17
1720	145478942	3518.097432616912	25
1720	148460794	3578.097432616912	19
1720	150777915	3638.097432616912	1
1761	145932971	3526.18654820486	15
1761	148806442	3586.08654820486	38
1761	150978935	3646.08654820486	34
1760	145932971	3526.18654820486	4
1760	148806442	3586.08654820486	9
1760	150978935	3646.08654820486	3
1793	149134604	3595.051447555237	44
1793	151177008	3655.051447555237	33
1792	149134604	3595.051447555237	13
1792	151177008	3655.051447555237	8
1695	138974411	3414.00976705295	55
1695	143029553	3474.00976705295	54
1695	146274922	3534.00976705295	44
1695	149096441	3594.00976705295	45
1695	151153586	3654.00976705295	33
1694	138974411	3414.00976705295	20
1694	143029553	3474.00976705295	17
1694	146274922	3534.00976705295	11
1694	149096441	3594.00976705295	6
1694	151153586	3654.00976705295	8
1781	148407773	3577.086611901829	42
1781	150736633	3637.086611901829	29
1780	148407773	3577.086611901829	7
1780	150736633	3637.086611901829	4
1791	149016254	3592.015238167928	34
1791	151107541	3652.015238167928	34
1790	149016254	3592.015238167928	4
1790	151107541	3652.015238167928	4
1787	148942698	3590.047654574621	39
1787	151065583	3650.047654574621	34
1786	148942698	3590.047654574621	9
1786	151065583	3650.047654574621	9
1801	150191250	3619.074937263574	42
1801	151678703	3679.074937263574	24
1800	150191250	3619.074937263574	12
1800	151678703	3679.074937263574	5
1785	148834425	3587.087941969419	43
1785	150996425	3647.087941969419	22
1785	152029888	3707.087941969419	16
1784	148834425	3587.087941969419	17
1784	150996425	3647.087941969419	6
1784	152029888	3707.087941969419	3
1745	144684848	3501.086418484733	44
1745	147614365	3561.086418484733	48
1745	150263172	3621.086418484733	41
1745	151705979	3681.086418484733	31
1744	144684848	3501.086418484733	20
1744	147614365	3561.086418484733	0
1744	150263172	3621.086418484733	13
1744	151705979	3681.086418484733	7
1703	139877169	3427.016073808866	39
1703	143932012	3487.016073808866	51
1703	146861398	3547.016073808866	39
1703	149620329	3607.016073808866	43
1703	151437531	3667.016073808866	31
1702	139877169	3427.016073808866	8
1702	143932012	3487.016073808866	14
1702	146861398	3547.016073808866	1
1702	149620329	3607.016073808866	13
1702	151437531	3667.016073808866	9
1797	149844176	3612.046807874413	39
1797	151546749	3672.046807874413	32
1796	149844176	3612.046807874413	14
1796	151546749	3672.046807874413	7
1799	150137489	3618.067217421252	39
1799	151660438	3678.067217421252	29
1798	150137489	3618.067217421252	13
1798	151660438	3678.067217421252	7
1763	146676193	3543.080259067402	42
1763	149428358	3603.080259067402	35
1763	151347871	3663.080259067402	32
1763	152138612	3723.080259067402	9
1762	146676193	3543.080259067402	12
1762	149428358	3603.080259067402	8
1762	151347871	3663.080259067402	8
1762	152138612	3723.080259067402	1
1689	138270060	3404.048791526165	50
1689	142321118	3464.048791526165	48
1689	145815539	3524.048791526165	47
1689	148721946	3584.048791526165	43
1689	150934276	3644.048791526165	34
1689	151998468	3704.048791526165	22
1688	138270060	3404.048791526165	0
1688	142321118	3464.048791526165	1
1688	145815539	3524.048791526165	5
1688	148721946	3584.048791526165	6
1688	150934276	3644.048791526165	2
1688	151998468	3704.048791526165	1
1753	145589116	3520.098312759725	6
1753	148551304	3580.098312759725	30
1753	150836573	3640.098312759725	32
1753	151957351	3700.098312759725	26
1752	145589116	3520.098312759725	3
1752	148551304	3580.098312759725	19
1752	150836573	3640.098312759725	12
1752	151957351	3700.098312759725	13
1749	145534694	3519.067467958806	34
1749	148508331	3579.067467958806	37
1749	150806597	3639.067467958806	34
1749	151944335	3699.067467958806	19
1749	152356013	3759.067467958806	15
1748	145534694	3519.067467958806	21
1748	148508331	3579.067467958806	16
1748	150806597	3639.067467958806	9
1748	151944335	3699.067467958806	9
1748	152356013	3759.067467958806	7
1805	150862584	3641.097429537377	33
1805	151969659	3701.097429537377	24
1805	152365484	3761.097429537377	13
1804	150862584	3641.097429537377	9
1804	151969659	3701.097429537377	4
1804	152365484	3761.097429537377	1
1803	150832598	3640.03490515945	31
1803	151955268	3700.03490515945	19
1803	152360108	3760.03490515945	13
1802	150832598	3640.03490515945	8
1802	151955268	3700.03490515945	3
1802	152360108	3760.03490515945	3
1683	137644614	3397.004430210893	57
1683	141800106	3457.004430210893	52
1683	145406457	3517.004430210893	48
1683	148395201	3577.004430210893	44
1683	150729548	3637.004430210893	36
1683	151902674	3697.004430210893	19
1683	152339611	3757.004430210893	13
1682	137644614	3397.004430210893	17
1682	141800106	3457.004430210893	10
1682	145406457	3517.004430210893	6
1682	148395201	3577.004430210893	5
1682	150729548	3637.004430210893	5
1682	151902674	3697.004430210893	2
1682	152339611	3757.004430210893	2
1707	140087778	3430.029741450632	52
1707	144131468	3490.029741450632	53
1707	147004574	3550.029741450632	46
1707	149760264	3610.029741450632	44
1707	151506850	3670.029741450632	29
1707	152176036	3730.029741450632	17
1706	140087778	3430.029741450632	22
1706	144131468	3490.029741450632	26
1706	147004574	3550.029741450632	8
1706	149760264	3610.029741450632	10
1706	151506850	3670.029741450632	12
1706	152176036	3730.029741450632	2
1751	145588427	3520.083966210415	45
1751	148550348	3580.083966210415	42
1751	150835608	3640.083966210415	33
1751	151956655	3700.083966210415	25
1751	152360529	3760.083966210415	16
1750	145588427	3520.083966210415	25
1750	148550348	3580.083966210415	18
1750	150835608	3640.083966210415	12
1750	151956655	3700.083966210415	7
1750	152360529	3760.083966210415	1
1789	148983918	3591.058699921076	42
1789	151088557	3651.058699921076	33
1789	152065095	3711.058699921076	22
1789	152399613	3771.058699921076	12
1788	148983918	3591.058699921076	0
1788	151088557	3651.058699921076	10
1788	152065095	3711.058699921076	4
1788	152399613	3771.058699921076	3
1711	140541628	3437.023145621037	54
1711	144470555	3497.023145621037	47
1711	147383451	3557.023145621037	48
1711	150088152	3617.023145621037	43
1711	151638302	3677.023145621037	32
1711	152212859	3737.023145621037	17
1711	152459852	3797.023145621037	8
1710	140541628	3437.023145621037	3
1710	144470555	3497.023145621037	1
1710	147383451	3557.023145621037	7
1710	150088152	3617.023145621037	13
1710	151638302	3677.023145621037	1
1710	152212859	3737.023145621037	6
1710	152459852	3797.023145621037	3
1769	147285558	3555.037694433215	49
1769	150000191	3615.037694433215	46
1769	151602042	3675.037694433215	32
1769	152203614	3735.037694433215	15
1769	152456304	3795.037694433215	6
1769	152529962	3855.037694433215	3
1768	147285558	3555.037694433215	18
1768	150000191	3615.037694433215	18
1768	151602042	3675.037694433215	10
1768	152203614	3735.037694433215	3
1768	152456304	3795.037694433215	3
1768	152529962	3855.037694433215	1
1777	148123267	3571.078783356748	42
1777	150576179	3631.078783356748	36
1777	151820123	3691.078783356748	28
1777	152297410	3751.078783356748	16
1777	152478733	3811.078783356748	7
1776	148123267	3571.078783356748	13
1776	150576179	3631.078783356748	13
1776	151820123	3691.078783356748	4
1776	152297410	3751.078783356748	6
1776	152478733	3811.078783356748	2
1713	140761162	3440.09729784925	53
1713	144638215	3500.09729784925	45
1713	147562403	3560.09729784925	46
1713	150224981	3620.09729784925	38
1713	151692510	3680.09729784925	30
1713	152230587	3740.09729784925	15
1713	152464774	3800.09729784925	5
1713	152534998	3860.09729784925	4
1712	140761162	3440.09729784925	17
1712	144638215	3500.09729784925	14
1712	147562403	3560.09729784925	22
1712	150224981	3620.09729784925	17
1712	151692510	3680.09729784925	9
1712	152230587	3740.09729784925	3
1712	152464774	3800.09729784925	1
1712	152534998	3860.09729784925	0
1755	145619458	3521.015459054918	37
1755	148574408	3581.015459054918	41
1755	150856741	3641.015459054918	34
1755	151966713	3701.015459054918	23
1755	152364683	3761.015459054918	15
1755	152489717	3821.015459054918	7
1755	152549149	3881.015459054918	4
1754	145619458	3521.015459054918	15
1754	148574408	3581.015459054918	18
1754	150856741	3641.015459054918	8
1754	151966713	3701.015459054918	6
1754	152364683	3761.015459054918	5
1754	152489717	3821.015459054918	2
1754	152549149	3881.015459054918	1
1773	147381267	3557.013672940969	47
1773	150086610	3617.013672940969	45
1773	151637858	3677.013672940969	30
1773	152212855	3737.013672940969	16
1773	152459718	3797.013672940969	9
1773	152531707	3857.013672940969	4
1772	147381267	3557.013672940969	5
1772	150086610	3617.013672940969	10
1772	151637858	3677.013672940969	4
1772	152212855	3737.013672940969	3
1772	152459718	3797.013672940969	2
1772	152531707	3857.013672940969	1
1757	145687872	3522.044762560353	14
1757	148637577	3582.044762560353	39
1757	150886856	3642.044762560353	34
1757	151979770	3702.044762560353	25
1757	152369456	3762.044762560353	15
1757	152490943	3822.044762560353	7
1757	152550141	3882.044762560353	4
1756	145687872	3522.044762560353	9
1756	148637577	3582.044762560353	13
1756	150886856	3642.044762560353	15
1756	151979770	3702.044762560353	4
1756	152369456	3762.044762560353	4
1756	152490943	3822.044762560353	3
1756	152550141	3882.044762560353	2
1807	150932777	3644.014317147364	34
1807	151997974	3704.014317147364	24
1807	152375525	3764.014317147364	14
1807	152492810	3824.014317147364	7
1807	152550962	3884.014317147364	4
1806	150932777	3644.014317147364	6
1806	151997974	3704.014317147364	5
1806	152375525	3764.014317147364	4
1806	152492810	3824.014317147364	2
1806	152550962	3884.014317147364	3

