version 2
run Obstacles_Night-0-20191117-11:12:55-5434
attr configname Obstacles_Night
attr datetime 20191117-11:12:55
attr experiment Obstacles_Night
attr inifile omnetpp.ini
attr iterationvars $0=0
attr iterationvarsf 0-
attr measurement $0=0
attr network artery.veins.World
attr processid 5434
attr repetition 0
attr replication #0
attr resultdir results
attr runnumber 0
attr seedset 0
param *.traci.launcher.sumocfg "\"Obstacles_Night/run.sumo.cfg\""
param *.withObstacles true
param *.obstacles.obstacles "xmldoc(\"config_obstacles.xml\", \"//AnalogueModel[@type='SimpleObstacleShadowing']/obstacles\")"
param *.node[*].nic.mac1609_4.txPower 20mW
param *.node[*].nic.phy80211p.decider "xmldoc(\"config_obstacles.xml\")"
param *.node[*].nic.phy80211p.analogueModels "xmldoc(\"config_obstacles.xml\")"
param *.node[*].applType "\"artery.veins.ApplicationLayer\""
param *.node[*].appl.middleware.updateInterval 0.1s
param *.node[*].appl.middleware.datetime "\"2013-06-01 12:35:00\""
param *.node[*].appl.middleware.services "xmldoc(\"services.xml\")"
param *.node[*].appl.middleware.ExampleService.DecisionLogic 0
param *.node[*].appl.middleware.ExampleService.NeighboringWindow 60
param *.traci.core.version -1
param *.traci.launcher.typename "\"PosixLauncher\""
param *.playgroundSizeX 4000m
param *.playgroundSizeY 4000m
param *.playgroundSizeZ 50m
param *.connectionManager.maxInterfDist 1500m
param *.connectionManager.sendDirect true
param *.connectionManager.coreDebug false

scalar World.node[5].appl.middleware.CaService #cam_sent 158
scalar World.node[5].appl.middleware.ExampleService #full_proofs 0
scalar World.node[5].appl.middleware.ExampleService #half_proofs 0
scalar World.node[5].appl.middleware.ExampleService #failed_proofs 0
scalar World.node[5].appl.middleware.ExampleService #loc_proof_send 1
scalar World.node[5].nic.phy80211p busyTime 0.00016272340425532
scalar World.node[5].nic.mac1609_4 ReceivedUnicastPackets 0
scalar World.node[5].nic.mac1609_4 ReceivedBroadcasts 40
scalar World.node[5].nic.mac1609_4 SentPackets 159
scalar World.node[5].nic.mac1609_4 SentAcknowledgements 0
scalar World.node[5].nic.mac1609_4 SNIRLostPackets 7
scalar World.node[5].nic.mac1609_4 RXTXLostPackets 0
scalar World.node[5].nic.mac1609_4 TotalLostPackets 7
scalar World.node[5].nic.mac1609_4 DroppedPacketsInMac 0
scalar World.node[5].nic.mac1609_4 TooLittleTime 0
scalar World.node[5].nic.mac1609_4 TimesIntoBackoff 159
scalar World.node[5].nic.mac1609_4 SlotsBackoff 1021
scalar World.node[5].nic.mac1609_4 NumInternalContention 0
scalar World.node[5].nic.mac1609_4 totalBusyTime 0.033703
scalar World.node[3].appl.middleware.CaService #cam_sent 310
scalar World.node[3].appl.middleware.ExampleService #full_proofs 0
scalar World.node[3].appl.middleware.ExampleService #half_proofs 0
scalar World.node[3].appl.middleware.ExampleService #failed_proofs 0
scalar World.node[3].appl.middleware.ExampleService #loc_proof_send 1
scalar World.node[3].nic.phy80211p busyTime 0.000334592
scalar World.node[3].nic.mac1609_4 ReceivedUnicastPackets 0
scalar World.node[3].nic.mac1609_4 ReceivedBroadcasts 252
scalar World.node[3].nic.mac1609_4 SentPackets 311
scalar World.node[3].nic.mac1609_4 SentAcknowledgements 0
scalar World.node[3].nic.mac1609_4 SNIRLostPackets 5
scalar World.node[3].nic.mac1609_4 RXTXLostPackets 0
scalar World.node[3].nic.mac1609_4 TotalLostPackets 5
scalar World.node[3].nic.mac1609_4 DroppedPacketsInMac 0
scalar World.node[3].nic.mac1609_4 TooLittleTime 0
scalar World.node[3].nic.mac1609_4 TimesIntoBackoff 311
scalar World.node[3].nic.mac1609_4 SlotsBackoff 2300
scalar World.node[3].nic.mac1609_4 NumInternalContention 0
scalar World.node[3].nic.mac1609_4 totalBusyTime 0.093055
scalar World.node[4].appl.middleware.CaService #cam_sent 355
scalar World.node[4].appl.middleware.ExampleService #full_proofs 0
scalar World.node[4].appl.middleware.ExampleService #half_proofs 0
scalar World.node[4].appl.middleware.ExampleService #failed_proofs 1
scalar World.node[4].appl.middleware.ExampleService #loc_proof_send 4
scalar World.node[4].nic.phy80211p busyTime 0.00069820689655172
scalar World.node[4].nic.mac1609_4 ReceivedUnicastPackets 0
scalar World.node[4].nic.mac1609_4 ReceivedBroadcasts 476
scalar World.node[4].nic.mac1609_4 SentPackets 359
scalar World.node[4].nic.mac1609_4 SentAcknowledgements 0
scalar World.node[4].nic.mac1609_4 SNIRLostPackets 22
scalar World.node[4].nic.mac1609_4 RXTXLostPackets 0
scalar World.node[4].nic.mac1609_4 TotalLostPackets 22
scalar World.node[4].nic.mac1609_4 DroppedPacketsInMac 0
scalar World.node[4].nic.mac1609_4 TooLittleTime 0
scalar World.node[4].nic.mac1609_4 TimesIntoBackoff 360
scalar World.node[4].nic.mac1609_4 SlotsBackoff 2556
scalar World.node[4].nic.mac1609_4 NumInternalContention 0
scalar World.node[4].nic.mac1609_4 totalBusyTime 0.139671
scalar World.node[7].appl.middleware.CaService #cam_sent 268
scalar World.node[7].appl.middleware.ExampleService #full_proofs 2
scalar World.node[7].appl.middleware.ExampleService #half_proofs 0
scalar World.node[7].appl.middleware.ExampleService #failed_proofs 0
scalar World.node[7].appl.middleware.ExampleService #loc_proof_send 4
scalar World.node[7].nic.phy80211p busyTime 0.00048351219512195
scalar World.node[7].nic.mac1609_4 ReceivedUnicastPackets 0
scalar World.node[7].nic.mac1609_4 ReceivedBroadcasts 225
scalar World.node[7].nic.mac1609_4 SentPackets 272
scalar World.node[7].nic.mac1609_4 SentAcknowledgements 0
scalar World.node[7].nic.mac1609_4 SNIRLostPackets 19
scalar World.node[7].nic.mac1609_4 RXTXLostPackets 3
scalar World.node[7].nic.mac1609_4 TotalLostPackets 22
scalar World.node[7].nic.mac1609_4 DroppedPacketsInMac 0
scalar World.node[7].nic.mac1609_4 TooLittleTime 0
scalar World.node[7].nic.mac1609_4 TimesIntoBackoff 272
scalar World.node[7].nic.mac1609_4 SlotsBackoff 2117
scalar World.node[7].nic.mac1609_4 NumInternalContention 0
scalar World.node[7].nic.mac1609_4 totalBusyTime 0.084096
scalar World.node[1].appl.middleware.CaService #cam_sent 547
scalar World.node[1].appl.middleware.ExampleService #full_proofs 1
scalar World.node[1].appl.middleware.ExampleService #half_proofs 1
scalar World.node[1].appl.middleware.ExampleService #failed_proofs 0
scalar World.node[1].appl.middleware.ExampleService #loc_proof_send 7
scalar World.node[1].nic.phy80211p busyTime 0.00073182608695652
scalar World.node[1].nic.mac1609_4 ReceivedUnicastPackets 0
scalar World.node[1].nic.mac1609_4 ReceivedBroadcasts 784
scalar World.node[1].nic.mac1609_4 SentPackets 554
scalar World.node[1].nic.mac1609_4 SentAcknowledgements 0
scalar World.node[1].nic.mac1609_4 SNIRLostPackets 43
scalar World.node[1].nic.mac1609_4 RXTXLostPackets 7
scalar World.node[1].nic.mac1609_4 TotalLostPackets 50
scalar World.node[1].nic.mac1609_4 DroppedPacketsInMac 0
scalar World.node[1].nic.mac1609_4 TooLittleTime 0
scalar World.node[1].nic.mac1609_4 TimesIntoBackoff 554
scalar World.node[1].nic.mac1609_4 SlotsBackoff 4179
scalar World.node[1].nic.mac1609_4 NumInternalContention 0
scalar World.node[1].nic.mac1609_4 totalBusyTime 0.224874000001
scalar World.node[2].appl.middleware.CaService #cam_sent 581
scalar World.node[2].appl.middleware.ExampleService #full_proofs 2
scalar World.node[2].appl.middleware.ExampleService #half_proofs 1
scalar World.node[2].appl.middleware.ExampleService #failed_proofs 0
scalar World.node[2].appl.middleware.ExampleService #loc_proof_send 11
scalar World.node[2].nic.phy80211p busyTime 0.00074836697247706
scalar World.node[2].nic.mac1609_4 ReceivedUnicastPackets 0
scalar World.node[2].nic.mac1609_4 ReceivedBroadcasts 960
scalar World.node[2].nic.mac1609_4 SentPackets 592
scalar World.node[2].nic.mac1609_4 SentAcknowledgements 0
scalar World.node[2].nic.mac1609_4 SNIRLostPackets 40
scalar World.node[2].nic.mac1609_4 RXTXLostPackets 13
scalar World.node[2].nic.mac1609_4 TotalLostPackets 53
scalar World.node[2].nic.mac1609_4 DroppedPacketsInMac 0
scalar World.node[2].nic.mac1609_4 TooLittleTime 0
scalar World.node[2].nic.mac1609_4 TimesIntoBackoff 592
scalar World.node[2].nic.mac1609_4 SlotsBackoff 4438
scalar World.node[2].nic.mac1609_4 NumInternalContention 0
scalar World.node[2].nic.mac1609_4 totalBusyTime 0.259632147761
scalar World.node[6].appl.middleware.CaService #cam_sent 1074473624
scalar World.node[6].appl.middleware.ExampleService #full_proofs 0
scalar World.node[6].appl.middleware.ExampleService #half_proofs 3
scalar World.node[6].appl.middleware.ExampleService #failed_proofs 0
scalar World.node[6].appl.middleware.ExampleService #loc_proof_send 9
scalar World.node[6].nic.phy80211p busyTime 0.00089563218390804
scalar World.node[6].nic.mac1609_4 ReceivedUnicastPackets 0
scalar World.node[6].nic.mac1609_4 ReceivedBroadcasts 892
scalar World.node[6].nic.mac1609_4 SentPackets 428
scalar World.node[6].nic.mac1609_4 SentAcknowledgements 0
scalar World.node[6].nic.mac1609_4 SNIRLostPackets 65
scalar World.node[6].nic.mac1609_4 RXTXLostPackets 7
scalar World.node[6].nic.mac1609_4 TotalLostPackets 72
scalar World.node[6].nic.mac1609_4 DroppedPacketsInMac 0
scalar World.node[6].nic.mac1609_4 TooLittleTime 0
scalar World.node[6].nic.mac1609_4 TimesIntoBackoff 428
scalar World.node[6].nic.mac1609_4 SlotsBackoff 3213
scalar World.node[6].nic.mac1609_4 NumInternalContention 0
scalar World.node[6].nic.mac1609_4 totalBusyTime 0.225228050047
scalar World.node[0].appl.middleware.CaService #cam_sent 632
scalar World.node[0].appl.middleware.ExampleService #full_proofs 2
scalar World.node[0].appl.middleware.ExampleService #half_proofs 0
scalar World.node[0].appl.middleware.ExampleService #failed_proofs 1
scalar World.node[0].appl.middleware.ExampleService #loc_proof_send 9
scalar World.node[0].nic.phy80211p busyTime 0.0003598406374502
scalar World.node[0].nic.mac1609_4 ReceivedUnicastPackets 0
scalar World.node[0].nic.mac1609_4 ReceivedBroadcasts 472
scalar World.node[0].nic.mac1609_4 SentPackets 641
scalar World.node[0].nic.mac1609_4 SentAcknowledgements 0
scalar World.node[0].nic.mac1609_4 SNIRLostPackets 86
scalar World.node[0].nic.mac1609_4 RXTXLostPackets 0
scalar World.node[0].nic.mac1609_4 TotalLostPackets 86
scalar World.node[0].nic.mac1609_4 DroppedPacketsInMac 0
scalar World.node[0].nic.mac1609_4 TooLittleTime 0
scalar World.node[0].nic.mac1609_4 TimesIntoBackoff 641
scalar World.node[0].nic.mac1609_4 SlotsBackoff 4637
scalar World.node[0].nic.mac1609_4 NumInternalContention 0
scalar World.node[0].nic.mac1609_4 totalBusyTime 0.19494505918
scalar World.node[13].appl.middleware.CaService #cam_sent 164
scalar World.node[13].appl.middleware.ExampleService #full_proofs 0
scalar World.node[13].appl.middleware.ExampleService #half_proofs 0
scalar World.node[13].appl.middleware.ExampleService #failed_proofs 0
scalar World.node[13].appl.middleware.ExampleService #loc_proof_send 0
scalar World.node[13].nic.phy80211p busyTime 0.00035395918367347
scalar World.node[13].nic.mac1609_4 ReceivedUnicastPackets 0
scalar World.node[13].nic.mac1609_4 ReceivedBroadcasts 103
scalar World.node[13].nic.mac1609_4 SentPackets 164
scalar World.node[13].nic.mac1609_4 SentAcknowledgements 0
scalar World.node[13].nic.mac1609_4 SNIRLostPackets 3
scalar World.node[13].nic.mac1609_4 RXTXLostPackets 0
scalar World.node[13].nic.mac1609_4 TotalLostPackets 3
scalar World.node[13].nic.mac1609_4 DroppedPacketsInMac 0
scalar World.node[13].nic.mac1609_4 TooLittleTime 0
scalar World.node[13].nic.mac1609_4 TimesIntoBackoff 164
scalar World.node[13].nic.mac1609_4 SlotsBackoff 1376
scalar World.node[13].nic.mac1609_4 NumInternalContention 0
scalar World.node[13].nic.mac1609_4 totalBusyTime 0.044276
scalar World.node[14].appl.middleware.CaService #cam_sent 168
scalar World.node[14].appl.middleware.ExampleService #full_proofs 0
scalar World.node[14].appl.middleware.ExampleService #half_proofs 0
scalar World.node[14].appl.middleware.ExampleService #failed_proofs 0
scalar World.node[14].appl.middleware.ExampleService #loc_proof_send 1
scalar World.node[14].nic.phy80211p busyTime 0.00071904
scalar World.node[14].nic.mac1609_4 ReceivedUnicastPackets 0
scalar World.node[14].nic.mac1609_4 ReceivedBroadcasts 180
scalar World.node[14].nic.mac1609_4 SentPackets 169
scalar World.node[14].nic.mac1609_4 SentAcknowledgements 0
scalar World.node[14].nic.mac1609_4 SNIRLostPackets 41
scalar World.node[14].nic.mac1609_4 RXTXLostPackets 0
scalar World.node[14].nic.mac1609_4 TotalLostPackets 41
scalar World.node[14].nic.mac1609_4 DroppedPacketsInMac 0
scalar World.node[14].nic.mac1609_4 TooLittleTime 0
scalar World.node[14].nic.mac1609_4 TimesIntoBackoff 169
scalar World.node[14].nic.mac1609_4 SlotsBackoff 1369
scalar World.node[14].nic.mac1609_4 NumInternalContention 0
scalar World.node[14].nic.mac1609_4 totalBusyTime 0.063649
scalar World.node[8].appl.middleware.CaService #cam_sent 482
scalar World.node[8].appl.middleware.ExampleService #full_proofs 1
scalar World.node[8].appl.middleware.ExampleService #half_proofs 0
scalar World.node[8].appl.middleware.ExampleService #failed_proofs 1
scalar World.node[8].appl.middleware.ExampleService #loc_proof_send 9
scalar World.node[8].nic.phy80211p busyTime 0.00083459217877094
scalar World.node[8].nic.mac1609_4 ReceivedUnicastPackets 0
scalar World.node[8].nic.mac1609_4 ReceivedBroadcasts 837
scalar World.node[8].nic.mac1609_4 SentPackets 491
scalar World.node[8].nic.mac1609_4 SentAcknowledgements 0
scalar World.node[8].nic.mac1609_4 SNIRLostPackets 80
scalar World.node[8].nic.mac1609_4 RXTXLostPackets 10
scalar World.node[8].nic.mac1609_4 TotalLostPackets 90
scalar World.node[8].nic.mac1609_4 DroppedPacketsInMac 0
scalar World.node[8].nic.mac1609_4 TooLittleTime 0
scalar World.node[8].nic.mac1609_4 TimesIntoBackoff 491
scalar World.node[8].nic.mac1609_4 SlotsBackoff 3523
scalar World.node[8].nic.mac1609_4 NumInternalContention 0
scalar World.node[8].nic.mac1609_4 totalBusyTime 0.22949920293
scalar World.node[17].appl.middleware.CaService #cam_sent 118
scalar World.node[17].appl.middleware.ExampleService #full_proofs 1
scalar World.node[17].appl.middleware.ExampleService #half_proofs 0
scalar World.node[17].appl.middleware.ExampleService #failed_proofs 0
scalar World.node[17].appl.middleware.ExampleService #loc_proof_send 3
scalar World.node[17].nic.phy80211p busyTime 0.00096114285714286
scalar World.node[17].nic.mac1609_4 ReceivedUnicastPackets 0
scalar World.node[17].nic.mac1609_4 ReceivedBroadcasts 208
scalar World.node[17].nic.mac1609_4 SentPackets 121
scalar World.node[17].nic.mac1609_4 SentAcknowledgements 0
scalar World.node[17].nic.mac1609_4 SNIRLostPackets 41
scalar World.node[17].nic.mac1609_4 RXTXLostPackets 0
scalar World.node[17].nic.mac1609_4 TotalLostPackets 41
scalar World.node[17].nic.mac1609_4 DroppedPacketsInMac 0
scalar World.node[17].nic.mac1609_4 TooLittleTime 0
scalar World.node[17].nic.mac1609_4 TimesIntoBackoff 122
scalar World.node[17].nic.mac1609_4 SlotsBackoff 926
scalar World.node[17].nic.mac1609_4 NumInternalContention 0
scalar World.node[17].nic.mac1609_4 totalBusyTime 0.060113
scalar World.node[10].appl.middleware.CaService #cam_sent 483
scalar World.node[10].appl.middleware.ExampleService #full_proofs 0
scalar World.node[10].appl.middleware.ExampleService #half_proofs 1
scalar World.node[10].appl.middleware.ExampleService #failed_proofs 2
scalar World.node[10].appl.middleware.ExampleService #loc_proof_send 7
scalar World.node[10].nic.phy80211p busyTime 0.00058207407407407
scalar World.node[10].nic.mac1609_4 ReceivedUnicastPackets 0
scalar World.node[10].nic.mac1609_4 ReceivedBroadcasts 482
scalar World.node[10].nic.mac1609_4 SentPackets 490
scalar World.node[10].nic.mac1609_4 SentAcknowledgements 0
scalar World.node[10].nic.mac1609_4 SNIRLostPackets 98
scalar World.node[10].nic.mac1609_4 RXTXLostPackets 2
scalar World.node[10].nic.mac1609_4 TotalLostPackets 100
scalar World.node[10].nic.mac1609_4 DroppedPacketsInMac 0
scalar World.node[10].nic.mac1609_4 TooLittleTime 0
scalar World.node[10].nic.mac1609_4 TimesIntoBackoff 490
scalar World.node[10].nic.mac1609_4 SlotsBackoff 3771
scalar World.node[10].nic.mac1609_4 NumInternalContention 0
scalar World.node[10].nic.mac1609_4 totalBusyTime 0.173842
scalar World.node[12].appl.middleware.CaService #cam_sent 453
scalar World.node[12].appl.middleware.ExampleService #full_proofs 1
scalar World.node[12].appl.middleware.ExampleService #half_proofs 1
scalar World.node[12].appl.middleware.ExampleService #failed_proofs 0
scalar World.node[12].appl.middleware.ExampleService #loc_proof_send 4
scalar World.node[12].nic.phy80211p busyTime 0.00039312883435583
scalar World.node[12].nic.mac1609_4 ReceivedUnicastPackets 0
scalar World.node[12].nic.mac1609_4 ReceivedBroadcasts 365
scalar World.node[12].nic.mac1609_4 SentPackets 457
scalar World.node[12].nic.mac1609_4 SentAcknowledgements 0
scalar World.node[12].nic.mac1609_4 SNIRLostPackets 30
scalar World.node[12].nic.mac1609_4 RXTXLostPackets 0
scalar World.node[12].nic.mac1609_4 TotalLostPackets 30
scalar World.node[12].nic.mac1609_4 DroppedPacketsInMac 0
scalar World.node[12].nic.mac1609_4 TooLittleTime 0
scalar World.node[12].nic.mac1609_4 TimesIntoBackoff 457
scalar World.node[12].nic.mac1609_4 SlotsBackoff 3266
scalar World.node[12].nic.mac1609_4 NumInternalContention 0
scalar World.node[12].nic.mac1609_4 totalBusyTime 0.138761
scalar World.node[15].appl.middleware.CaService #cam_sent 394
scalar World.node[15].appl.middleware.ExampleService #full_proofs 0
scalar World.node[15].appl.middleware.ExampleService #half_proofs 1
scalar World.node[15].appl.middleware.ExampleService #failed_proofs 1
scalar World.node[15].appl.middleware.ExampleService #loc_proof_send 4
scalar World.node[15].nic.phy80211p busyTime 0.00075267796610169
scalar World.node[15].nic.mac1609_4 ReceivedUnicastPackets 0
scalar World.node[15].nic.mac1609_4 ReceivedBroadcasts 520
scalar World.node[15].nic.mac1609_4 SentPackets 398
scalar World.node[15].nic.mac1609_4 SentAcknowledgements 0
scalar World.node[15].nic.mac1609_4 SNIRLostPackets 25
scalar World.node[15].nic.mac1609_4 RXTXLostPackets 0
scalar World.node[15].nic.mac1609_4 TotalLostPackets 25
scalar World.node[15].nic.mac1609_4 DroppedPacketsInMac 0
scalar World.node[15].nic.mac1609_4 TooLittleTime 0
scalar World.node[15].nic.mac1609_4 TimesIntoBackoff 398
scalar World.node[15].nic.mac1609_4 SlotsBackoff 2837
scalar World.node[15].nic.mac1609_4 NumInternalContention 0
scalar World.node[15].nic.mac1609_4 totalBusyTime 0.15383
scalar World.node[9].appl.middleware.CaService #cam_sent 711
scalar World.node[9].appl.middleware.ExampleService #full_proofs 1
scalar World.node[9].appl.middleware.ExampleService #half_proofs 2
scalar World.node[9].appl.middleware.ExampleService #failed_proofs 0
scalar World.node[9].appl.middleware.ExampleService #loc_proof_send 11
scalar World.node[9].nic.phy80211p busyTime 0.00080093617021276
scalar World.node[9].nic.mac1609_4 ReceivedUnicastPackets 0
scalar World.node[9].nic.mac1609_4 ReceivedBroadcasts 1321
scalar World.node[9].nic.mac1609_4 SentPackets 722
scalar World.node[9].nic.mac1609_4 SentAcknowledgements 0
scalar World.node[9].nic.mac1609_4 SNIRLostPackets 65
scalar World.node[9].nic.mac1609_4 RXTXLostPackets 13
scalar World.node[9].nic.mac1609_4 TotalLostPackets 78
scalar World.node[9].nic.mac1609_4 DroppedPacketsInMac 0
scalar World.node[9].nic.mac1609_4 TooLittleTime 0
scalar World.node[9].nic.mac1609_4 TimesIntoBackoff 722
scalar World.node[9].nic.mac1609_4 SlotsBackoff 5252
scalar World.node[9].nic.mac1609_4 NumInternalContention 0
scalar World.node[9].nic.mac1609_4 totalBusyTime 0.343346052399
scalar World.node[23].appl.middleware.CaService #cam_sent 102
scalar World.node[23].appl.middleware.ExampleService #full_proofs 0
scalar World.node[23].appl.middleware.ExampleService #half_proofs 0
scalar World.node[23].appl.middleware.ExampleService #failed_proofs 0
scalar World.node[23].appl.middleware.ExampleService #loc_proof_send 1
scalar World.node[23].nic.phy80211p busyTime 0.00050933333333333
scalar World.node[23].nic.mac1609_4 ReceivedUnicastPackets 0
scalar World.node[23].nic.mac1609_4 ReceivedBroadcasts 93
scalar World.node[23].nic.mac1609_4 SentPackets 103
scalar World.node[23].nic.mac1609_4 SentAcknowledgements 0
scalar World.node[23].nic.mac1609_4 SNIRLostPackets 1
scalar World.node[23].nic.mac1609_4 RXTXLostPackets 0
scalar World.node[23].nic.mac1609_4 TotalLostPackets 1
scalar World.node[23].nic.mac1609_4 DroppedPacketsInMac 0
scalar World.node[23].nic.mac1609_4 TooLittleTime 0
scalar World.node[23].nic.mac1609_4 TimesIntoBackoff 103
scalar World.node[23].nic.mac1609_4 SlotsBackoff 754
scalar World.node[23].nic.mac1609_4 NumInternalContention 0
scalar World.node[23].nic.mac1609_4 totalBusyTime 0.032127
scalar World.node[20].appl.middleware.CaService #cam_sent 318
scalar World.node[20].appl.middleware.ExampleService #full_proofs 1
scalar World.node[20].appl.middleware.ExampleService #half_proofs 0
scalar World.node[20].appl.middleware.ExampleService #failed_proofs 0
scalar World.node[20].appl.middleware.ExampleService #loc_proof_send 2
scalar World.node[20].nic.phy80211p busyTime 0.00032134736842105
scalar World.node[20].nic.mac1609_4 ReceivedUnicastPackets 0
scalar World.node[20].nic.mac1609_4 ReceivedBroadcasts 173
scalar World.node[20].nic.mac1609_4 SentPackets 320
scalar World.node[20].nic.mac1609_4 SentAcknowledgements 0
scalar World.node[20].nic.mac1609_4 SNIRLostPackets 14
scalar World.node[20].nic.mac1609_4 RXTXLostPackets 1
scalar World.node[20].nic.mac1609_4 TotalLostPackets 15
scalar World.node[20].nic.mac1609_4 DroppedPacketsInMac 0
scalar World.node[20].nic.mac1609_4 TooLittleTime 0
scalar World.node[20].nic.mac1609_4 TimesIntoBackoff 321
scalar World.node[20].nic.mac1609_4 SlotsBackoff 2271
scalar World.node[20].nic.mac1609_4 NumInternalContention 0
scalar World.node[20].nic.mac1609_4 totalBusyTime 0.08296
scalar World.node[19].appl.middleware.CaService #cam_sent 382
scalar World.node[19].appl.middleware.ExampleService #full_proofs 1
scalar World.node[19].appl.middleware.ExampleService #half_proofs 0
scalar World.node[19].appl.middleware.ExampleService #failed_proofs 1
scalar World.node[19].appl.middleware.ExampleService #loc_proof_send 6
scalar World.node[19].nic.phy80211p busyTime 0.00096832520325203
scalar World.node[19].nic.mac1609_4 ReceivedUnicastPackets 0
scalar World.node[19].nic.mac1609_4 ReceivedBroadcasts 696
scalar World.node[19].nic.mac1609_4 SentPackets 388
scalar World.node[19].nic.mac1609_4 SentAcknowledgements 0
scalar World.node[19].nic.mac1609_4 SNIRLostPackets 36
scalar World.node[19].nic.mac1609_4 RXTXLostPackets 3
scalar World.node[19].nic.mac1609_4 TotalLostPackets 39
scalar World.node[19].nic.mac1609_4 DroppedPacketsInMac 0
scalar World.node[19].nic.mac1609_4 TooLittleTime 0
scalar World.node[19].nic.mac1609_4 TimesIntoBackoff 390
scalar World.node[19].nic.mac1609_4 SlotsBackoff 2907
scalar World.node[19].nic.mac1609_4 NumInternalContention 0
scalar World.node[19].nic.mac1609_4 totalBusyTime 0.182412046829
scalar World.node[18].appl.middleware.CaService #cam_sent 514
scalar World.node[18].appl.middleware.ExampleService #full_proofs 2
scalar World.node[18].appl.middleware.ExampleService #half_proofs 1
scalar World.node[18].appl.middleware.ExampleService #failed_proofs 0
scalar World.node[18].appl.middleware.ExampleService #loc_proof_send 7
scalar World.node[18].nic.phy80211p busyTime 0.00074513609467455
scalar World.node[18].nic.mac1609_4 ReceivedUnicastPackets 0
scalar World.node[18].nic.mac1609_4 ReceivedBroadcasts 714
scalar World.node[18].nic.mac1609_4 SentPackets 521
scalar World.node[18].nic.mac1609_4 SentAcknowledgements 0
scalar World.node[18].nic.mac1609_4 SNIRLostPackets 58
scalar World.node[18].nic.mac1609_4 RXTXLostPackets 1
scalar World.node[18].nic.mac1609_4 TotalLostPackets 59
scalar World.node[18].nic.mac1609_4 DroppedPacketsInMac 0
scalar World.node[18].nic.mac1609_4 TooLittleTime 0
scalar World.node[18].nic.mac1609_4 TimesIntoBackoff 522
scalar World.node[18].nic.mac1609_4 SlotsBackoff 3892
scalar World.node[18].nic.mac1609_4 NumInternalContention 0
scalar World.node[18].nic.mac1609_4 totalBusyTime 0.210953
scalar World.node[16].appl.middleware.CaService #cam_sent 502
scalar World.node[16].appl.middleware.ExampleService #full_proofs 1
scalar World.node[16].appl.middleware.ExampleService #half_proofs 2
scalar World.node[16].appl.middleware.ExampleService #failed_proofs 0
scalar World.node[16].appl.middleware.ExampleService #loc_proof_send 8
scalar World.node[16].nic.phy80211p busyTime 0.00074697584541062
scalar World.node[16].nic.mac1609_4 ReceivedUnicastPackets 0
scalar World.node[16].nic.mac1609_4 ReceivedBroadcasts 903
scalar World.node[16].nic.mac1609_4 SentPackets 510
scalar World.node[16].nic.mac1609_4 SentAcknowledgements 0
scalar World.node[16].nic.mac1609_4 SNIRLostPackets 48
scalar World.node[16].nic.mac1609_4 RXTXLostPackets 1
scalar World.node[16].nic.mac1609_4 TotalLostPackets 49
scalar World.node[16].nic.mac1609_4 DroppedPacketsInMac 0
scalar World.node[16].nic.mac1609_4 TooLittleTime 0
scalar World.node[16].nic.mac1609_4 TimesIntoBackoff 511
scalar World.node[16].nic.mac1609_4 SlotsBackoff 3723
scalar World.node[16].nic.mac1609_4 NumInternalContention 0
scalar World.node[16].nic.mac1609_4 totalBusyTime 0.238182
scalar World.node[11].appl.middleware.CaService #cam_sent 905
scalar World.node[11].appl.middleware.ExampleService #full_proofs 2
scalar World.node[11].appl.middleware.ExampleService #half_proofs 1
scalar World.node[11].appl.middleware.ExampleService #failed_proofs 0
scalar World.node[11].appl.middleware.ExampleService #loc_proof_send 10
scalar World.node[11].nic.phy80211p busyTime 0.00058110787172011
scalar World.node[11].nic.mac1609_4 ReceivedUnicastPackets 0
scalar World.node[11].nic.mac1609_4 ReceivedBroadcasts 1138
scalar World.node[11].nic.mac1609_4 SentPackets 915
scalar World.node[11].nic.mac1609_4 SentAcknowledgements 0
scalar World.node[11].nic.mac1609_4 SNIRLostPackets 85
scalar World.node[11].nic.mac1609_4 RXTXLostPackets 9
scalar World.node[11].nic.mac1609_4 TotalLostPackets 94
scalar World.node[11].nic.mac1609_4 DroppedPacketsInMac 0
scalar World.node[11].nic.mac1609_4 TooLittleTime 0
scalar World.node[11].nic.mac1609_4 TimesIntoBackoff 916
scalar World.node[11].nic.mac1609_4 SlotsBackoff 7032
scalar World.node[11].nic.mac1609_4 NumInternalContention 0
scalar World.node[11].nic.mac1609_4 totalBusyTime 0.349107091052
scalar World.node[26].appl.middleware.CaService #cam_sent 268
scalar World.node[26].appl.middleware.ExampleService #full_proofs 0
scalar World.node[26].appl.middleware.ExampleService #half_proofs 1
scalar World.node[26].appl.middleware.ExampleService #failed_proofs 0
scalar World.node[26].appl.middleware.ExampleService #loc_proof_send 5
scalar World.node[26].nic.phy80211p busyTime 0.0012282298850575
scalar World.node[26].nic.mac1609_4 ReceivedUnicastPackets 0
scalar World.node[26].nic.mac1609_4 ReceivedBroadcasts 615
scalar World.node[26].nic.mac1609_4 SentPackets 273
scalar World.node[26].nic.mac1609_4 SentAcknowledgements 0
scalar World.node[26].nic.mac1609_4 SNIRLostPackets 42
scalar World.node[26].nic.mac1609_4 RXTXLostPackets 3
scalar World.node[26].nic.mac1609_4 TotalLostPackets 45
scalar World.node[26].nic.mac1609_4 DroppedPacketsInMac 0
scalar World.node[26].nic.mac1609_4 TooLittleTime 0
scalar World.node[26].nic.mac1609_4 TimesIntoBackoff 273
scalar World.node[26].nic.mac1609_4 SlotsBackoff 2002
scalar World.node[26].nic.mac1609_4 NumInternalContention 0
scalar World.node[26].nic.mac1609_4 totalBusyTime 0.151337
scalar World.node[22].appl.middleware.CaService #cam_sent 522
scalar World.node[22].appl.middleware.ExampleService #full_proofs 1
scalar World.node[22].appl.middleware.ExampleService #half_proofs 1
scalar World.node[22].appl.middleware.ExampleService #failed_proofs 1
scalar World.node[22].appl.middleware.ExampleService #loc_proof_send 9
scalar World.node[22].nic.phy80211p busyTime 0.00093894972067038
scalar World.node[22].nic.mac1609_4 ReceivedUnicastPackets 0
scalar World.node[22].nic.mac1609_4 ReceivedBroadcasts 986
scalar World.node[22].nic.mac1609_4 SentPackets 531
scalar World.node[22].nic.mac1609_4 SentAcknowledgements 0
scalar World.node[22].nic.mac1609_4 SNIRLostPackets 47
scalar World.node[22].nic.mac1609_4 RXTXLostPackets 4
scalar World.node[22].nic.mac1609_4 TotalLostPackets 51
scalar World.node[22].nic.mac1609_4 DroppedPacketsInMac 0
scalar World.node[22].nic.mac1609_4 TooLittleTime 0
scalar World.node[22].nic.mac1609_4 TimesIntoBackoff 535
scalar World.node[22].nic.mac1609_4 SlotsBackoff 3885
scalar World.node[22].nic.mac1609_4 NumInternalContention 0
scalar World.node[22].nic.mac1609_4 totalBusyTime 0.254675
scalar World.node[24].appl.middleware.CaService #cam_sent 551
scalar World.node[24].appl.middleware.ExampleService #full_proofs 2
scalar World.node[24].appl.middleware.ExampleService #half_proofs 0
scalar World.node[24].appl.middleware.ExampleService #failed_proofs 1
scalar World.node[24].appl.middleware.ExampleService #loc_proof_send 8
scalar World.node[24].nic.phy80211p busyTime 0.00074937931034482
scalar World.node[24].nic.mac1609_4 ReceivedUnicastPackets 0
scalar World.node[24].nic.mac1609_4 ReceivedBroadcasts 744
scalar World.node[24].nic.mac1609_4 SentPackets 559
scalar World.node[24].nic.mac1609_4 SentAcknowledgements 0
scalar World.node[24].nic.mac1609_4 SNIRLostPackets 59
scalar World.node[24].nic.mac1609_4 RXTXLostPackets 3
scalar World.node[24].nic.mac1609_4 TotalLostPackets 62
scalar World.node[24].nic.mac1609_4 DroppedPacketsInMac 0
scalar World.node[24].nic.mac1609_4 TooLittleTime 0
scalar World.node[24].nic.mac1609_4 TimesIntoBackoff 560
scalar World.node[24].nic.mac1609_4 SlotsBackoff 4297
scalar World.node[24].nic.mac1609_4 NumInternalContention 0
scalar World.node[24].nic.mac1609_4 totalBusyTime 0.221567
scalar World.node[21].appl.middleware.CaService #cam_sent 637
scalar World.node[21].appl.middleware.ExampleService #full_proofs 0
scalar World.node[21].appl.middleware.ExampleService #half_proofs 1
scalar World.node[21].appl.middleware.ExampleService #failed_proofs 2
scalar World.node[21].appl.middleware.ExampleService #loc_proof_send 9
scalar World.node[21].nic.phy80211p busyTime 0.00085047698744769
scalar World.node[21].nic.mac1609_4 ReceivedUnicastPackets 0
scalar World.node[21].nic.mac1609_4 ReceivedBroadcasts 1175
scalar World.node[21].nic.mac1609_4 SentPackets 646
scalar World.node[21].nic.mac1609_4 SentAcknowledgements 0
scalar World.node[21].nic.mac1609_4 SNIRLostPackets 75
scalar World.node[21].nic.mac1609_4 RXTXLostPackets 2
scalar World.node[21].nic.mac1609_4 TotalLostPackets 77
scalar World.node[21].nic.mac1609_4 DroppedPacketsInMac 0
scalar World.node[21].nic.mac1609_4 TooLittleTime 0
scalar World.node[21].nic.mac1609_4 TimesIntoBackoff 646
scalar World.node[21].nic.mac1609_4 SlotsBackoff 4809
scalar World.node[21].nic.mac1609_4 NumInternalContention 0
scalar World.node[21].nic.mac1609_4 totalBusyTime 0.308310004606
scalar World.node[25].appl.middleware.CaService #cam_sent 422
scalar World.node[25].appl.middleware.ExampleService #full_proofs 1
scalar World.node[25].appl.middleware.ExampleService #half_proofs 1
scalar World.node[25].appl.middleware.ExampleService #failed_proofs 0
scalar World.node[25].appl.middleware.ExampleService #loc_proof_send 6
scalar World.node[25].nic.phy80211p busyTime 0.00087698285714285
scalar World.node[25].nic.mac1609_4 ReceivedUnicastPackets 0
scalar World.node[25].nic.mac1609_4 ReceivedBroadcasts 910
scalar World.node[25].nic.mac1609_4 SentPackets 428
scalar World.node[25].nic.mac1609_4 SentAcknowledgements 0
scalar World.node[25].nic.mac1609_4 SNIRLostPackets 33
scalar World.node[25].nic.mac1609_4 RXTXLostPackets 2
scalar World.node[25].nic.mac1609_4 TotalLostPackets 35
scalar World.node[25].nic.mac1609_4 DroppedPacketsInMac 0
scalar World.node[25].nic.mac1609_4 TooLittleTime 0
scalar World.node[25].nic.mac1609_4 TimesIntoBackoff 429
scalar World.node[25].nic.mac1609_4 SlotsBackoff 3189
scalar World.node[25].nic.mac1609_4 NumInternalContention 0
scalar World.node[25].nic.mac1609_4 totalBusyTime 0.223412085081
scalar World.node[29].appl.middleware.CaService #cam_sent 486
scalar World.node[29].appl.middleware.ExampleService #full_proofs 0
scalar World.node[29].appl.middleware.ExampleService #half_proofs 2
scalar World.node[29].appl.middleware.ExampleService #failed_proofs 1
scalar World.node[29].appl.middleware.ExampleService #loc_proof_send 13
scalar World.node[29].nic.phy80211p busyTime 0.0012515282051282
scalar World.node[29].nic.mac1609_4 ReceivedUnicastPackets 0
scalar World.node[29].nic.mac1609_4 ReceivedBroadcasts 1459
scalar World.node[29].nic.mac1609_4 SentPackets 499
scalar World.node[29].nic.mac1609_4 SentAcknowledgements 0
scalar World.node[29].nic.mac1609_4 SNIRLostPackets 45
scalar World.node[29].nic.mac1609_4 RXTXLostPackets 15
scalar World.node[29].nic.mac1609_4 TotalLostPackets 60
scalar World.node[29].nic.mac1609_4 DroppedPacketsInMac 0
scalar World.node[29].nic.mac1609_4 TooLittleTime 0
scalar World.node[29].nic.mac1609_4 TimesIntoBackoff 500
scalar World.node[29].nic.mac1609_4 SlotsBackoff 3943
scalar World.node[29].nic.mac1609_4 NumInternalContention 0
scalar World.node[29].nic.mac1609_4 totalBusyTime 0.324523
scalar World.node[27].appl.middleware.CaService #cam_sent 594
scalar World.node[27].appl.middleware.ExampleService #full_proofs 2
scalar World.node[27].appl.middleware.ExampleService #half_proofs 2
scalar World.node[27].appl.middleware.ExampleService #failed_proofs 0
scalar World.node[27].appl.middleware.ExampleService #loc_proof_send 15
scalar World.node[27].nic.phy80211p busyTime 0.00097901255230125
scalar World.node[27].nic.mac1609_4 ReceivedUnicastPackets 0
scalar World.node[27].nic.mac1609_4 ReceivedBroadcasts 1371
scalar World.node[27].nic.mac1609_4 SentPackets 609
scalar World.node[27].nic.mac1609_4 SentAcknowledgements 0
scalar World.node[27].nic.mac1609_4 SNIRLostPackets 66
scalar World.node[27].nic.mac1609_4 RXTXLostPackets 13
scalar World.node[27].nic.mac1609_4 TotalLostPackets 79
scalar World.node[27].nic.mac1609_4 DroppedPacketsInMac 0
scalar World.node[27].nic.mac1609_4 TooLittleTime 0
scalar World.node[27].nic.mac1609_4 TimesIntoBackoff 611
scalar World.node[27].nic.mac1609_4 SlotsBackoff 4746
scalar World.node[27].nic.mac1609_4 NumInternalContention 0
scalar World.node[27].nic.mac1609_4 totalBusyTime 0.332993162015
scalar World.node[28].appl.middleware.CaService #cam_sent 609
scalar World.node[28].appl.middleware.ExampleService #full_proofs 0
scalar World.node[28].appl.middleware.ExampleService #half_proofs 2
scalar World.node[28].appl.middleware.ExampleService #failed_proofs 1
scalar World.node[28].appl.middleware.ExampleService #loc_proof_send 14
scalar World.node[28].nic.phy80211p busyTime 0.001358852173913
scalar World.node[28].nic.mac1609_4 ReceivedUnicastPackets 0
scalar World.node[28].nic.mac1609_4 ReceivedBroadcasts 1876
scalar World.node[28].nic.mac1609_4 SentPackets 623
scalar World.node[28].nic.mac1609_4 SentAcknowledgements 0
scalar World.node[28].nic.mac1609_4 SNIRLostPackets 51
scalar World.node[28].nic.mac1609_4 RXTXLostPackets 19
scalar World.node[28].nic.mac1609_4 TotalLostPackets 70
scalar World.node[28].nic.mac1609_4 DroppedPacketsInMac 0
scalar World.node[28].nic.mac1609_4 TooLittleTime 0
scalar World.node[28].nic.mac1609_4 TimesIntoBackoff 623
scalar World.node[28].nic.mac1609_4 SlotsBackoff 4835
scalar World.node[28].nic.mac1609_4 NumInternalContention 0
scalar World.node[28].nic.mac1609_4 totalBusyTime 0.412359375619
scalar World.node[30].appl.middleware.CaService #cam_sent 595
scalar World.node[30].appl.middleware.ExampleService #full_proofs 2
scalar World.node[30].appl.middleware.ExampleService #half_proofs 2
scalar World.node[30].appl.middleware.ExampleService #failed_proofs 0
scalar World.node[30].appl.middleware.ExampleService #loc_proof_send 16
scalar World.node[30].nic.phy80211p busyTime 0.001161641025641
scalar World.node[30].nic.mac1609_4 ReceivedUnicastPackets 0
scalar World.node[30].nic.mac1609_4 ReceivedBroadcasts 1612
scalar World.node[30].nic.mac1609_4 SentPackets 611
scalar World.node[30].nic.mac1609_4 SentAcknowledgements 0
scalar World.node[30].nic.mac1609_4 SNIRLostPackets 62
scalar World.node[30].nic.mac1609_4 RXTXLostPackets 24
scalar World.node[30].nic.mac1609_4 TotalLostPackets 86
scalar World.node[30].nic.mac1609_4 DroppedPacketsInMac 0
scalar World.node[30].nic.mac1609_4 TooLittleTime 0
scalar World.node[30].nic.mac1609_4 TimesIntoBackoff 612
scalar World.node[30].nic.mac1609_4 SlotsBackoff 4435
scalar World.node[30].nic.mac1609_4 NumInternalContention 0
scalar World.node[30].nic.mac1609_4 totalBusyTime 0.370444108095
scalar World.node[33].appl.middleware.CaService #cam_sent 543
scalar World.node[33].appl.middleware.ExampleService #full_proofs 3
scalar World.node[33].appl.middleware.ExampleService #half_proofs 0
scalar World.node[33].appl.middleware.ExampleService #failed_proofs 0
scalar World.node[33].appl.middleware.ExampleService #loc_proof_send 16
scalar World.node[33].nic.phy80211p busyTime 0.0013848080808081
scalar World.node[33].nic.mac1609_4 ReceivedUnicastPackets 0
scalar World.node[33].nic.mac1609_4 ReceivedBroadcasts 1607
scalar World.node[33].nic.mac1609_4 SentPackets 559
scalar World.node[33].nic.mac1609_4 SentAcknowledgements 0
scalar World.node[33].nic.mac1609_4 SNIRLostPackets 78
scalar World.node[33].nic.mac1609_4 RXTXLostPackets 26
scalar World.node[33].nic.mac1609_4 TotalLostPackets 104
scalar World.node[33].nic.mac1609_4 DroppedPacketsInMac 0
scalar World.node[33].nic.mac1609_4 TooLittleTime 0
scalar World.node[33].nic.mac1609_4 TimesIntoBackoff 560
scalar World.node[33].nic.mac1609_4 SlotsBackoff 4304
scalar World.node[33].nic.mac1609_4 NumInternalContention 0
scalar World.node[33].nic.mac1609_4 totalBusyTime 0.364999347009
scalar World.node[40].appl.middleware.CaService #cam_sent 262
scalar World.node[40].appl.middleware.ExampleService #full_proofs 0
scalar World.node[40].appl.middleware.ExampleService #half_proofs 0
scalar World.node[40].appl.middleware.ExampleService #failed_proofs 1
scalar World.node[40].appl.middleware.ExampleService #loc_proof_send 7
scalar World.node[40].nic.phy80211p busyTime 0.0015805384615385
scalar World.node[40].nic.mac1609_4 ReceivedUnicastPackets 0
scalar World.node[40].nic.mac1609_4 ReceivedBroadcasts 949
scalar World.node[40].nic.mac1609_4 SentPackets 269
scalar World.node[40].nic.mac1609_4 SentAcknowledgements 0
scalar World.node[40].nic.mac1609_4 SNIRLostPackets 60
scalar World.node[40].nic.mac1609_4 RXTXLostPackets 17
scalar World.node[40].nic.mac1609_4 TotalLostPackets 77
scalar World.node[40].nic.mac1609_4 DroppedPacketsInMac 0
scalar World.node[40].nic.mac1609_4 TooLittleTime 0
scalar World.node[40].nic.mac1609_4 TimesIntoBackoff 271
scalar World.node[40].nic.mac1609_4 SlotsBackoff 1975
scalar World.node[40].nic.mac1609_4 NumInternalContention 0
scalar World.node[40].nic.mac1609_4 totalBusyTime 0.207277
scalar World.node[41].appl.middleware.CaService #cam_sent 314
scalar World.node[41].appl.middleware.ExampleService #full_proofs 1
scalar World.node[41].appl.middleware.ExampleService #half_proofs 0
scalar World.node[41].appl.middleware.ExampleService #failed_proofs 0
scalar World.node[41].appl.middleware.ExampleService #loc_proof_send 4
scalar World.node[41].nic.phy80211p busyTime 0.00050297872340426
scalar World.node[41].nic.mac1609_4 ReceivedUnicastPackets 0
scalar World.node[41].nic.mac1609_4 ReceivedBroadcasts 272
scalar World.node[41].nic.mac1609_4 SentPackets 318
scalar World.node[41].nic.mac1609_4 SentAcknowledgements 0
scalar World.node[41].nic.mac1609_4 SNIRLostPackets 20
scalar World.node[41].nic.mac1609_4 RXTXLostPackets 2
scalar World.node[41].nic.mac1609_4 TotalLostPackets 22
scalar World.node[41].nic.mac1609_4 DroppedPacketsInMac 0
scalar World.node[41].nic.mac1609_4 TooLittleTime 0
scalar World.node[41].nic.mac1609_4 TimesIntoBackoff 351
scalar World.node[41].nic.mac1609_4 SlotsBackoff 2634
scalar World.node[41].nic.mac1609_4 NumInternalContention 0
scalar World.node[41].nic.mac1609_4 totalBusyTime 0.098846
scalar World.node[37].appl.middleware.CaService #cam_sent 362
scalar World.node[37].appl.middleware.ExampleService #full_proofs 0
scalar World.node[37].appl.middleware.ExampleService #half_proofs 2
scalar World.node[37].appl.middleware.ExampleService #failed_proofs 0
scalar World.node[37].appl.middleware.ExampleService #loc_proof_send 12
scalar World.node[37].nic.phy80211p busyTime 0.0017384055944056
scalar World.node[37].nic.mac1609_4 ReceivedUnicastPackets 0
scalar World.node[37].nic.mac1609_4 ReceivedBroadcasts 1476
scalar World.node[37].nic.mac1609_4 SentPackets 374
scalar World.node[37].nic.mac1609_4 SentAcknowledgements 0
scalar World.node[37].nic.mac1609_4 SNIRLostPackets 59
scalar World.node[37].nic.mac1609_4 RXTXLostPackets 9
scalar World.node[37].nic.mac1609_4 TotalLostPackets 68
scalar World.node[37].nic.mac1609_4 DroppedPacketsInMac 0
scalar World.node[37].nic.mac1609_4 TooLittleTime 0
scalar World.node[37].nic.mac1609_4 TimesIntoBackoff 377
scalar World.node[37].nic.mac1609_4 SlotsBackoff 2855
scalar World.node[37].nic.mac1609_4 NumInternalContention 0
scalar World.node[37].nic.mac1609_4 totalBusyTime 0.308446
scalar World.node[32].appl.middleware.CaService #cam_sent 536
scalar World.node[32].appl.middleware.ExampleService #full_proofs 1
scalar World.node[32].appl.middleware.ExampleService #half_proofs 1
scalar World.node[32].appl.middleware.ExampleService #failed_proofs 2
scalar World.node[32].appl.middleware.ExampleService #loc_proof_send 21
scalar World.node[32].nic.phy80211p busyTime 0.0019083502304147
scalar World.node[32].nic.mac1609_4 ReceivedUnicastPackets 0
scalar World.node[32].nic.mac1609_4 ReceivedBroadcasts 2450
scalar World.node[32].nic.mac1609_4 SentPackets 557
scalar World.node[32].nic.mac1609_4 SentAcknowledgements 0
scalar World.node[32].nic.mac1609_4 SNIRLostPackets 103
scalar World.node[32].nic.mac1609_4 RXTXLostPackets 33
scalar World.node[32].nic.mac1609_4 TotalLostPackets 136
scalar World.node[32].nic.mac1609_4 DroppedPacketsInMac 0
scalar World.node[32].nic.mac1609_4 TooLittleTime 0
scalar World.node[32].nic.mac1609_4 TimesIntoBackoff 557
scalar World.node[32].nic.mac1609_4 SlotsBackoff 4148
scalar World.node[32].nic.mac1609_4 NumInternalContention 0
scalar World.node[32].nic.mac1609_4 totalBusyTime 0.502029824605
scalar World.node[36].appl.middleware.CaService #cam_sent 411
scalar World.node[36].appl.middleware.ExampleService #full_proofs 1
scalar World.node[36].appl.middleware.ExampleService #half_proofs 1
scalar World.node[36].appl.middleware.ExampleService #failed_proofs 0
scalar World.node[36].appl.middleware.ExampleService #loc_proof_send 9
scalar World.node[36].nic.phy80211p busyTime 0.0009498313253012
scalar World.node[36].nic.mac1609_4 ReceivedUnicastPackets 0
scalar World.node[36].nic.mac1609_4 ReceivedBroadcasts 910
scalar World.node[36].nic.mac1609_4 SentPackets 420
scalar World.node[36].nic.mac1609_4 SentAcknowledgements 0
scalar World.node[36].nic.mac1609_4 SNIRLostPackets 60
scalar World.node[36].nic.mac1609_4 RXTXLostPackets 9
scalar World.node[36].nic.mac1609_4 TotalLostPackets 69
scalar World.node[36].nic.mac1609_4 DroppedPacketsInMac 0
scalar World.node[36].nic.mac1609_4 TooLittleTime 0
scalar World.node[36].nic.mac1609_4 TimesIntoBackoff 423
scalar World.node[36].nic.mac1609_4 SlotsBackoff 3053
scalar World.node[36].nic.mac1609_4 NumInternalContention 0
scalar World.node[36].nic.mac1609_4 totalBusyTime 0.225772052701
scalar World.node[48].appl.middleware.CaService #cam_sent 108
scalar World.node[48].appl.middleware.ExampleService #full_proofs 0
scalar World.node[48].appl.middleware.ExampleService #half_proofs 0
scalar World.node[48].appl.middleware.ExampleService #failed_proofs 0
scalar World.node[48].appl.middleware.ExampleService #loc_proof_send 0
scalar World.node[48].nic.phy80211p busyTime 0.0005395
scalar World.node[48].nic.mac1609_4 ReceivedUnicastPackets 0
scalar World.node[48].nic.mac1609_4 ReceivedBroadcasts 101
scalar World.node[48].nic.mac1609_4 SentPackets 108
scalar World.node[48].nic.mac1609_4 SentAcknowledgements 0
scalar World.node[48].nic.mac1609_4 SNIRLostPackets 5
scalar World.node[48].nic.mac1609_4 RXTXLostPackets 0
scalar World.node[48].nic.mac1609_4 TotalLostPackets 5
scalar World.node[48].nic.mac1609_4 DroppedPacketsInMac 0
scalar World.node[48].nic.mac1609_4 TooLittleTime 0
scalar World.node[48].nic.mac1609_4 TimesIntoBackoff 108
scalar World.node[48].nic.mac1609_4 SlotsBackoff 780
scalar World.node[48].nic.mac1609_4 NumInternalContention 0
scalar World.node[48].nic.mac1609_4 totalBusyTime 0.0349
scalar World.node[34].appl.middleware.CaService #cam_sent 569
scalar World.node[34].appl.middleware.ExampleService #full_proofs 0
scalar World.node[34].appl.middleware.ExampleService #half_proofs 4
scalar World.node[34].appl.middleware.ExampleService #failed_proofs 0
scalar World.node[34].appl.middleware.ExampleService #loc_proof_send 20
scalar World.node[34].nic.phy80211p busyTime 0.0015103652173913
scalar World.node[34].nic.mac1609_4 ReceivedUnicastPackets 0
scalar World.node[34].nic.mac1609_4 ReceivedBroadcasts 2068
scalar World.node[34].nic.mac1609_4 SentPackets 589
scalar World.node[34].nic.mac1609_4 SentAcknowledgements 0
scalar World.node[34].nic.mac1609_4 SNIRLostPackets 76
scalar World.node[34].nic.mac1609_4 RXTXLostPackets 12
scalar World.node[34].nic.mac1609_4 TotalLostPackets 88
scalar World.node[34].nic.mac1609_4 DroppedPacketsInMac 0
scalar World.node[34].nic.mac1609_4 TooLittleTime 0
scalar World.node[34].nic.mac1609_4 TimesIntoBackoff 592
scalar World.node[34].nic.mac1609_4 SlotsBackoff 4568
scalar World.node[34].nic.mac1609_4 NumInternalContention 0
scalar World.node[34].nic.mac1609_4 totalBusyTime 0.441869210908
scalar World.node[31].appl.middleware.CaService #cam_sent 591
scalar World.node[31].appl.middleware.ExampleService #full_proofs 2
scalar World.node[31].appl.middleware.ExampleService #half_proofs 3
scalar World.node[31].appl.middleware.ExampleService #failed_proofs 0
scalar World.node[31].appl.middleware.ExampleService #loc_proof_send 24
scalar World.node[31].nic.phy80211p busyTime 0.0020382322097378
scalar World.node[31].nic.mac1609_4 ReceivedUnicastPackets 0
scalar World.node[31].nic.mac1609_4 ReceivedBroadcasts 3201
scalar World.node[31].nic.mac1609_4 SentPackets 615
scalar World.node[31].nic.mac1609_4 SentAcknowledgements 0
scalar World.node[31].nic.mac1609_4 SNIRLostPackets 154
scalar World.node[31].nic.mac1609_4 RXTXLostPackets 24
scalar World.node[31].nic.mac1609_4 TotalLostPackets 178
scalar World.node[31].nic.mac1609_4 DroppedPacketsInMac 0
scalar World.node[31].nic.mac1609_4 TooLittleTime 0
scalar World.node[31].nic.mac1609_4 TimesIntoBackoff 616
scalar World.node[31].nic.mac1609_4 SlotsBackoff 4642
scalar World.node[31].nic.mac1609_4 NumInternalContention 0
scalar World.node[31].nic.mac1609_4 totalBusyTime 0.641055618251
scalar World.node[43].appl.middleware.CaService #cam_sent 277
scalar World.node[43].appl.middleware.ExampleService #full_proofs 1
scalar World.node[43].appl.middleware.ExampleService #half_proofs 0
scalar World.node[43].appl.middleware.ExampleService #failed_proofs 1
scalar World.node[43].appl.middleware.ExampleService #loc_proof_send 9
scalar World.node[43].nic.phy80211p busyTime 0.0015539115044248
scalar World.node[43].nic.mac1609_4 ReceivedUnicastPackets 0
scalar World.node[43].nic.mac1609_4 ReceivedBroadcasts 999
scalar World.node[43].nic.mac1609_4 SentPackets 286
scalar World.node[43].nic.mac1609_4 SentAcknowledgements 0
scalar World.node[43].nic.mac1609_4 SNIRLostPackets 84
scalar World.node[43].nic.mac1609_4 RXTXLostPackets 16
scalar World.node[43].nic.mac1609_4 TotalLostPackets 100
scalar World.node[43].nic.mac1609_4 DroppedPacketsInMac 0
scalar World.node[43].nic.mac1609_4 TooLittleTime 0
scalar World.node[43].nic.mac1609_4 TimesIntoBackoff 286
scalar World.node[43].nic.mac1609_4 SlotsBackoff 2184
scalar World.node[43].nic.mac1609_4 NumInternalContention 0
scalar World.node[43].nic.mac1609_4 totalBusyTime 0.219286
scalar World.node[38].appl.middleware.CaService #cam_sent 511
scalar World.node[38].appl.middleware.ExampleService #full_proofs 1
scalar World.node[38].appl.middleware.ExampleService #half_proofs 1
scalar World.node[38].appl.middleware.ExampleService #failed_proofs 1
scalar World.node[38].appl.middleware.ExampleService #loc_proof_send 15
scalar World.node[38].nic.phy80211p busyTime 0.0013079004975124
scalar World.node[38].nic.mac1609_4 ReceivedUnicastPackets 0
scalar World.node[38].nic.mac1609_4 ReceivedBroadcasts 1514
scalar World.node[38].nic.mac1609_4 SentPackets 526
scalar World.node[38].nic.mac1609_4 SentAcknowledgements 0
scalar World.node[38].nic.mac1609_4 SNIRLostPackets 104
scalar World.node[38].nic.mac1609_4 RXTXLostPackets 26
scalar World.node[38].nic.mac1609_4 TotalLostPackets 130
scalar World.node[38].nic.mac1609_4 DroppedPacketsInMac 0
scalar World.node[38].nic.mac1609_4 TooLittleTime 0
scalar World.node[38].nic.mac1609_4 TimesIntoBackoff 526
scalar World.node[38].nic.mac1609_4 SlotsBackoff 3896
scalar World.node[38].nic.mac1609_4 NumInternalContention 0
scalar World.node[38].nic.mac1609_4 totalBusyTime 0.348174088051
scalar World.node[45].appl.middleware.CaService #cam_sent 377
scalar World.node[45].appl.middleware.ExampleService #full_proofs 1
scalar World.node[45].appl.middleware.ExampleService #half_proofs 1
scalar World.node[45].appl.middleware.ExampleService #failed_proofs 1
scalar World.node[45].appl.middleware.ExampleService #loc_proof_send 11
scalar World.node[45].nic.phy80211p busyTime 0.0012340152671756
scalar World.node[45].nic.mac1609_4 ReceivedUnicastPackets 0
scalar World.node[45].nic.mac1609_4 ReceivedBroadcasts 927
scalar World.node[45].nic.mac1609_4 SentPackets 388
scalar World.node[45].nic.mac1609_4 SentAcknowledgements 0
scalar World.node[45].nic.mac1609_4 SNIRLostPackets 69
scalar World.node[45].nic.mac1609_4 RXTXLostPackets 16
scalar World.node[45].nic.mac1609_4 TotalLostPackets 85
scalar World.node[45].nic.mac1609_4 DroppedPacketsInMac 0
scalar World.node[45].nic.mac1609_4 TooLittleTime 0
scalar World.node[45].nic.mac1609_4 TimesIntoBackoff 392
scalar World.node[45].nic.mac1609_4 SlotsBackoff 3063
scalar World.node[45].nic.mac1609_4 NumInternalContention 0
scalar World.node[45].nic.mac1609_4 totalBusyTime 0.224428084957
scalar World.node[44].appl.middleware.CaService #cam_sent 368
scalar World.node[44].appl.middleware.ExampleService #full_proofs 0
scalar World.node[44].appl.middleware.ExampleService #half_proofs 1
scalar World.node[44].appl.middleware.ExampleService #failed_proofs 0
scalar World.node[44].appl.middleware.ExampleService #loc_proof_send 6
scalar World.node[44].nic.phy80211p busyTime 0.00090753103448276
scalar World.node[44].nic.mac1609_4 ReceivedUnicastPackets 0
scalar World.node[44].nic.mac1609_4 ReceivedBroadcasts 701
scalar World.node[44].nic.mac1609_4 SentPackets 374
scalar World.node[44].nic.mac1609_4 SentAcknowledgements 0
scalar World.node[44].nic.mac1609_4 SNIRLostPackets 104
scalar World.node[44].nic.mac1609_4 RXTXLostPackets 8
scalar World.node[44].nic.mac1609_4 TotalLostPackets 112
scalar World.node[44].nic.mac1609_4 DroppedPacketsInMac 0
scalar World.node[44].nic.mac1609_4 TooLittleTime 0
scalar World.node[44].nic.mac1609_4 TimesIntoBackoff 375
scalar World.node[44].nic.mac1609_4 SlotsBackoff 2805
scalar World.node[44].nic.mac1609_4 NumInternalContention 0
scalar World.node[44].nic.mac1609_4 totalBusyTime 0.192718096594
scalar World.node[35].appl.middleware.CaService #cam_sent 679
scalar World.node[35].appl.middleware.ExampleService #full_proofs 0
scalar World.node[35].appl.middleware.ExampleService #half_proofs 3
scalar World.node[35].appl.middleware.ExampleService #failed_proofs 1
scalar World.node[35].appl.middleware.ExampleService #loc_proof_send 18
scalar World.node[35].nic.phy80211p busyTime 0.001349125
scalar World.node[35].nic.mac1609_4 ReceivedUnicastPackets 0
scalar World.node[35].nic.mac1609_4 ReceivedBroadcasts 2029
scalar World.node[35].nic.mac1609_4 SentPackets 697
scalar World.node[35].nic.mac1609_4 SentAcknowledgements 0
scalar World.node[35].nic.mac1609_4 SNIRLostPackets 100
scalar World.node[35].nic.mac1609_4 RXTXLostPackets 26
scalar World.node[35].nic.mac1609_4 TotalLostPackets 126
scalar World.node[35].nic.mac1609_4 DroppedPacketsInMac 0
scalar World.node[35].nic.mac1609_4 TooLittleTime 0
scalar World.node[35].nic.mac1609_4 TimesIntoBackoff 697
scalar World.node[35].nic.mac1609_4 SlotsBackoff 5216
scalar World.node[35].nic.mac1609_4 NumInternalContention 0
scalar World.node[35].nic.mac1609_4 totalBusyTime 0.457665424472
scalar World.node[42].appl.middleware.CaService #cam_sent 484
scalar World.node[42].appl.middleware.ExampleService #full_proofs 1
scalar World.node[42].appl.middleware.ExampleService #half_proofs 2
scalar World.node[42].appl.middleware.ExampleService #failed_proofs 1
scalar World.node[42].appl.middleware.ExampleService #loc_proof_send 15
scalar World.node[42].nic.phy80211p busyTime 0.0015428965517241
scalar World.node[42].nic.mac1609_4 ReceivedUnicastPackets 0
scalar World.node[42].nic.mac1609_4 ReceivedBroadcasts 1808
scalar World.node[42].nic.mac1609_4 SentPackets 499
scalar World.node[42].nic.mac1609_4 SentAcknowledgements 0
scalar World.node[42].nic.mac1609_4 SNIRLostPackets 113
scalar World.node[42].nic.mac1609_4 RXTXLostPackets 23
scalar World.node[42].nic.mac1609_4 TotalLostPackets 136
scalar World.node[42].nic.mac1609_4 DroppedPacketsInMac 0
scalar World.node[42].nic.mac1609_4 TooLittleTime 0
scalar World.node[42].nic.mac1609_4 TimesIntoBackoff 500
scalar World.node[42].nic.mac1609_4 SlotsBackoff 3808
scalar World.node[42].nic.mac1609_4 NumInternalContention 0
scalar World.node[42].nic.mac1609_4 totalBusyTime 0.393875020028
scalar World.node[58].appl.middleware.CaService #cam_sent 62
scalar World.node[58].appl.middleware.ExampleService #full_proofs 0
scalar World.node[58].appl.middleware.ExampleService #half_proofs 0
scalar World.node[58].appl.middleware.ExampleService #failed_proofs 0
scalar World.node[58].appl.middleware.ExampleService #loc_proof_send 0
scalar World.node[58].nic.phy80211p busyTime 0.0012128888888889
scalar World.node[58].nic.mac1609_4 ReceivedUnicastPackets 0
scalar World.node[58].nic.mac1609_4 ReceivedBroadcasts 129
scalar World.node[58].nic.mac1609_4 SentPackets 62
scalar World.node[58].nic.mac1609_4 SentAcknowledgements 0
scalar World.node[58].nic.mac1609_4 SNIRLostPackets 6
scalar World.node[58].nic.mac1609_4 RXTXLostPackets 0
scalar World.node[58].nic.mac1609_4 TotalLostPackets 6
scalar World.node[58].nic.mac1609_4 DroppedPacketsInMac 0
scalar World.node[58].nic.mac1609_4 TooLittleTime 0
scalar World.node[58].nic.mac1609_4 TimesIntoBackoff 62
scalar World.node[58].nic.mac1609_4 SlotsBackoff 423
scalar World.node[58].nic.mac1609_4 NumInternalContention 0
scalar World.node[58].nic.mac1609_4 totalBusyTime 0.031798
scalar World.node[52].appl.middleware.CaService #cam_sent 322
scalar World.node[52].appl.middleware.ExampleService #full_proofs 0
scalar World.node[52].appl.middleware.ExampleService #half_proofs 2
scalar World.node[52].appl.middleware.ExampleService #failed_proofs 0
scalar World.node[52].appl.middleware.ExampleService #loc_proof_send 7
scalar World.node[52].nic.phy80211p busyTime 0.0012396767676768
scalar World.node[52].nic.mac1609_4 ReceivedUnicastPackets 0
scalar World.node[52].nic.mac1609_4 ReceivedBroadcasts 740
scalar World.node[52].nic.mac1609_4 SentPackets 329
scalar World.node[52].nic.mac1609_4 SentAcknowledgements 0
scalar World.node[52].nic.mac1609_4 SNIRLostPackets 17
scalar World.node[52].nic.mac1609_4 RXTXLostPackets 9
scalar World.node[52].nic.mac1609_4 TotalLostPackets 26
scalar World.node[52].nic.mac1609_4 DroppedPacketsInMac 0
scalar World.node[52].nic.mac1609_4 TooLittleTime 0
scalar World.node[52].nic.mac1609_4 TimesIntoBackoff 330
scalar World.node[52].nic.mac1609_4 SlotsBackoff 2567
scalar World.node[52].nic.mac1609_4 NumInternalContention 0
scalar World.node[52].nic.mac1609_4 totalBusyTime 0.175881000031
scalar World.node[46].appl.middleware.CaService #cam_sent 453
scalar World.node[46].appl.middleware.ExampleService #full_proofs 1
scalar World.node[46].appl.middleware.ExampleService #half_proofs 1
scalar World.node[46].appl.middleware.ExampleService #failed_proofs 1
scalar World.node[46].appl.middleware.ExampleService #loc_proof_send 15
scalar World.node[46].nic.phy80211p busyTime 0.0015898638743455
scalar World.node[46].nic.mac1609_4 ReceivedUnicastPackets 0
scalar World.node[46].nic.mac1609_4 ReceivedBroadcasts 1756
scalar World.node[46].nic.mac1609_4 SentPackets 468
scalar World.node[46].nic.mac1609_4 SentAcknowledgements 0
scalar World.node[46].nic.mac1609_4 SNIRLostPackets 109
scalar World.node[46].nic.mac1609_4 RXTXLostPackets 18
scalar World.node[46].nic.mac1609_4 TotalLostPackets 127
scalar World.node[46].nic.mac1609_4 DroppedPacketsInMac 0
scalar World.node[46].nic.mac1609_4 TooLittleTime 0
scalar World.node[46].nic.mac1609_4 TimesIntoBackoff 469
scalar World.node[46].nic.mac1609_4 SlotsBackoff 3642
scalar World.node[46].nic.mac1609_4 NumInternalContention 0
scalar World.node[46].nic.mac1609_4 totalBusyTime 0.378076228282
scalar World.node[47].appl.middleware.CaService #cam_sent 463
scalar World.node[47].appl.middleware.ExampleService #full_proofs 0
scalar World.node[47].appl.middleware.ExampleService #half_proofs 2
scalar World.node[47].appl.middleware.ExampleService #failed_proofs 0
scalar World.node[47].appl.middleware.ExampleService #loc_proof_send 10
scalar World.node[47].nic.phy80211p busyTime 0.0011731363636364
scalar World.node[47].nic.mac1609_4 ReceivedUnicastPackets 0
scalar World.node[47].nic.mac1609_4 ReceivedBroadcasts 1176
scalar World.node[47].nic.mac1609_4 SentPackets 473
scalar World.node[47].nic.mac1609_4 SentAcknowledgements 0
scalar World.node[47].nic.mac1609_4 SNIRLostPackets 92
scalar World.node[47].nic.mac1609_4 RXTXLostPackets 5
scalar World.node[47].nic.mac1609_4 TotalLostPackets 97
scalar World.node[47].nic.mac1609_4 DroppedPacketsInMac 0
scalar World.node[47].nic.mac1609_4 TooLittleTime 0
scalar World.node[47].nic.mac1609_4 TimesIntoBackoff 473
scalar World.node[47].nic.mac1609_4 SlotsBackoff 3591
scalar World.node[47].nic.mac1609_4 NumInternalContention 0
scalar World.node[47].nic.mac1609_4 totalBusyTime 0.282865209991
scalar World.node[56].appl.middleware.CaService #cam_sent 238
scalar World.node[56].appl.middleware.ExampleService #full_proofs 0
scalar World.node[56].appl.middleware.ExampleService #half_proofs 1
scalar World.node[56].appl.middleware.ExampleService #failed_proofs 0
scalar World.node[56].appl.middleware.ExampleService #loc_proof_send 4
scalar World.node[56].nic.phy80211p busyTime 0.0015364444444444
scalar World.node[56].nic.mac1609_4 ReceivedUnicastPackets 0
scalar World.node[56].nic.mac1609_4 ReceivedBroadcasts 831
scalar World.node[56].nic.mac1609_4 SentPackets 242
scalar World.node[56].nic.mac1609_4 SentAcknowledgements 0
scalar World.node[56].nic.mac1609_4 SNIRLostPackets 18
scalar World.node[56].nic.mac1609_4 RXTXLostPackets 7
scalar World.node[56].nic.mac1609_4 TotalLostPackets 25
scalar World.node[56].nic.mac1609_4 DroppedPacketsInMac 0
scalar World.node[56].nic.mac1609_4 TooLittleTime 0
scalar World.node[56].nic.mac1609_4 TimesIntoBackoff 242
scalar World.node[56].nic.mac1609_4 SlotsBackoff 1758
scalar World.node[56].nic.mac1609_4 NumInternalContention 0
scalar World.node[56].nic.mac1609_4 totalBusyTime 0.177114052982
scalar World.node[39].appl.middleware.CaService #cam_sent 823
scalar World.node[39].appl.middleware.ExampleService #full_proofs 0
scalar World.node[39].appl.middleware.ExampleService #half_proofs 5
scalar World.node[39].appl.middleware.ExampleService #failed_proofs 0
scalar World.node[39].appl.middleware.ExampleService #loc_proof_send 22
scalar World.node[39].nic.phy80211p busyTime 0.0015679482200647
scalar World.node[39].nic.mac1609_4 ReceivedUnicastPackets 0
scalar World.node[39].nic.mac1609_4 ReceivedBroadcasts 2809
scalar World.node[39].nic.mac1609_4 SentPackets 845
scalar World.node[39].nic.mac1609_4 SentAcknowledgements 0
scalar World.node[39].nic.mac1609_4 SNIRLostPackets 171
scalar World.node[39].nic.mac1609_4 RXTXLostPackets 32
scalar World.node[39].nic.mac1609_4 TotalLostPackets 203
scalar World.node[39].nic.mac1609_4 DroppedPacketsInMac 0
scalar World.node[39].nic.mac1609_4 TooLittleTime 0
scalar World.node[39].nic.mac1609_4 TimesIntoBackoff 848
scalar World.node[39].nic.mac1609_4 SlotsBackoff 6405
scalar World.node[39].nic.mac1609_4 NumInternalContention 0
scalar World.node[39].nic.mac1609_4 totalBusyTime 0.619397090586
scalar World.node[53].appl.middleware.CaService #cam_sent 284
scalar World.node[53].appl.middleware.ExampleService #full_proofs 0
scalar World.node[53].appl.middleware.ExampleService #half_proofs 1
scalar World.node[53].appl.middleware.ExampleService #failed_proofs 1
scalar World.node[53].appl.middleware.ExampleService #loc_proof_send 7
scalar World.node[53].nic.phy80211p busyTime 0.0015133913043478
scalar World.node[53].nic.mac1609_4 ReceivedUnicastPackets 0
scalar World.node[53].nic.mac1609_4 ReceivedBroadcasts 1233
scalar World.node[53].nic.mac1609_4 SentPackets 291
scalar World.node[53].nic.mac1609_4 SentAcknowledgements 0
scalar World.node[53].nic.mac1609_4 SNIRLostPackets 47
scalar World.node[53].nic.mac1609_4 RXTXLostPackets 9
scalar World.node[53].nic.mac1609_4 TotalLostPackets 56
scalar World.node[53].nic.mac1609_4 DroppedPacketsInMac 0
scalar World.node[53].nic.mac1609_4 TooLittleTime 0
scalar World.node[53].nic.mac1609_4 TimesIntoBackoff 291
scalar World.node[53].nic.mac1609_4 SlotsBackoff 2142
scalar World.node[53].nic.mac1609_4 NumInternalContention 0
scalar World.node[53].nic.mac1609_4 totalBusyTime 0.255795082579
scalar World.node[50].appl.middleware.CaService #cam_sent 472
scalar World.node[50].appl.middleware.ExampleService #full_proofs 2
scalar World.node[50].appl.middleware.ExampleService #half_proofs 1
scalar World.node[50].appl.middleware.ExampleService #failed_proofs 0
scalar World.node[50].appl.middleware.ExampleService #loc_proof_send 12
scalar World.node[50].nic.phy80211p busyTime 0.0013035138121547
scalar World.node[50].nic.mac1609_4 ReceivedUnicastPackets 0
scalar World.node[50].nic.mac1609_4 ReceivedBroadcasts 1350
scalar World.node[50].nic.mac1609_4 SentPackets 484
scalar World.node[50].nic.mac1609_4 SentAcknowledgements 0
scalar World.node[50].nic.mac1609_4 SNIRLostPackets 99
scalar World.node[50].nic.mac1609_4 RXTXLostPackets 10
scalar World.node[50].nic.mac1609_4 TotalLostPackets 109
scalar World.node[50].nic.mac1609_4 DroppedPacketsInMac 0
scalar World.node[50].nic.mac1609_4 TooLittleTime 0
scalar World.node[50].nic.mac1609_4 TimesIntoBackoff 486
scalar World.node[50].nic.mac1609_4 SlotsBackoff 3747
scalar World.node[50].nic.mac1609_4 NumInternalContention 0
scalar World.node[50].nic.mac1609_4 totalBusyTime 0.314508176473
scalar World.node[57].appl.middleware.CaService #cam_sent 403
scalar World.node[57].appl.middleware.ExampleService #full_proofs 2
scalar World.node[57].appl.middleware.ExampleService #half_proofs 0
scalar World.node[57].appl.middleware.ExampleService #failed_proofs 0
scalar World.node[57].appl.middleware.ExampleService #loc_proof_send 7
scalar World.node[57].nic.phy80211p busyTime 0.001431
scalar World.node[57].nic.mac1609_4 ReceivedUnicastPackets 0
scalar World.node[57].nic.mac1609_4 ReceivedBroadcasts 1162
scalar World.node[57].nic.mac1609_4 SentPackets 410
scalar World.node[57].nic.mac1609_4 SentAcknowledgements 0
scalar World.node[57].nic.mac1609_4 SNIRLostPackets 35
scalar World.node[57].nic.mac1609_4 RXTXLostPackets 9
scalar World.node[57].nic.mac1609_4 TotalLostPackets 44
scalar World.node[57].nic.mac1609_4 DroppedPacketsInMac 0
scalar World.node[57].nic.mac1609_4 TooLittleTime 0
scalar World.node[57].nic.mac1609_4 TimesIntoBackoff 411
scalar World.node[57].nic.mac1609_4 SlotsBackoff 3064
scalar World.node[57].nic.mac1609_4 NumInternalContention 0
scalar World.node[57].nic.mac1609_4 totalBusyTime 0.261002047172
scalar World.node[51].appl.middleware.CaService #cam_sent 505
scalar World.node[51].appl.middleware.ExampleService #full_proofs 1
scalar World.node[51].appl.middleware.ExampleService #half_proofs 1
scalar World.node[51].appl.middleware.ExampleService #failed_proofs 1
scalar World.node[51].appl.middleware.ExampleService #loc_proof_send 10
scalar World.node[51].nic.phy80211p busyTime 0.0014551698113207
scalar World.node[51].nic.mac1609_4 ReceivedUnicastPackets 0
scalar World.node[51].nic.mac1609_4 ReceivedBroadcasts 1730
scalar World.node[51].nic.mac1609_4 SentPackets 515
scalar World.node[51].nic.mac1609_4 SentAcknowledgements 0
scalar World.node[51].nic.mac1609_4 SNIRLostPackets 166
scalar World.node[51].nic.mac1609_4 RXTXLostPackets 6
scalar World.node[51].nic.mac1609_4 TotalLostPackets 172
scalar World.node[51].nic.mac1609_4 DroppedPacketsInMac 0
scalar World.node[51].nic.mac1609_4 TooLittleTime 0
scalar World.node[51].nic.mac1609_4 TimesIntoBackoff 516
scalar World.node[51].nic.mac1609_4 SlotsBackoff 3915
scalar World.node[51].nic.mac1609_4 NumInternalContention 0
scalar World.node[51].nic.mac1609_4 totalBusyTime 0.391411132497
scalar World.node[59].appl.middleware.CaService #cam_sent 418
scalar World.node[59].appl.middleware.ExampleService #full_proofs 0
scalar World.node[59].appl.middleware.ExampleService #half_proofs 0
scalar World.node[59].appl.middleware.ExampleService #failed_proofs 0
scalar World.node[59].appl.middleware.ExampleService #loc_proof_send 1
scalar World.node[59].nic.phy80211p busyTime 0.000527424
scalar World.node[59].nic.mac1609_4 ReceivedUnicastPackets 0
scalar World.node[59].nic.mac1609_4 ReceivedBroadcasts 315
scalar World.node[59].nic.mac1609_4 SentPackets 419
scalar World.node[59].nic.mac1609_4 SentAcknowledgements 0
scalar World.node[59].nic.mac1609_4 SNIRLostPackets 89
scalar World.node[59].nic.mac1609_4 RXTXLostPackets 0
scalar World.node[59].nic.mac1609_4 TotalLostPackets 89
scalar World.node[59].nic.mac1609_4 DroppedPacketsInMac 0
scalar World.node[59].nic.mac1609_4 TooLittleTime 0
scalar World.node[59].nic.mac1609_4 TimesIntoBackoff 419
scalar World.node[59].nic.mac1609_4 SlotsBackoff 2885
scalar World.node[59].nic.mac1609_4 NumInternalContention 0
scalar World.node[59].nic.mac1609_4 totalBusyTime 0.134675
scalar World.node[54].appl.middleware.CaService #cam_sent 494
scalar World.node[54].appl.middleware.ExampleService #full_proofs 2
scalar World.node[54].appl.middleware.ExampleService #half_proofs 2
scalar World.node[54].appl.middleware.ExampleService #failed_proofs 0
scalar World.node[54].appl.middleware.ExampleService #loc_proof_send 10
scalar World.node[54].nic.phy80211p busyTime 0.0013126903553299
scalar World.node[54].nic.mac1609_4 ReceivedUnicastPackets 0
scalar World.node[54].nic.mac1609_4 ReceivedBroadcasts 1554
scalar World.node[54].nic.mac1609_4 SentPackets 504
scalar World.node[54].nic.mac1609_4 SentAcknowledgements 0
scalar World.node[54].nic.mac1609_4 SNIRLostPackets 34
scalar World.node[54].nic.mac1609_4 RXTXLostPackets 6
scalar World.node[54].nic.mac1609_4 TotalLostPackets 40
scalar World.node[54].nic.mac1609_4 DroppedPacketsInMac 0
scalar World.node[54].nic.mac1609_4 TooLittleTime 0
scalar World.node[54].nic.mac1609_4 TimesIntoBackoff 504
scalar World.node[54].nic.mac1609_4 SlotsBackoff 3718
scalar World.node[54].nic.mac1609_4 NumInternalContention 0
scalar World.node[54].nic.mac1609_4 totalBusyTime 0.340480101999
scalar World.node[55].appl.middleware.CaService #cam_sent 408
scalar World.node[55].appl.middleware.ExampleService #full_proofs 1
scalar World.node[55].appl.middleware.ExampleService #half_proofs 1
scalar World.node[55].appl.middleware.ExampleService #failed_proofs 0
scalar World.node[55].appl.middleware.ExampleService #loc_proof_send 8
scalar World.node[55].nic.phy80211p busyTime 0.00075823115577889
scalar World.node[55].nic.mac1609_4 ReceivedUnicastPackets 0
scalar World.node[55].nic.mac1609_4 ReceivedBroadcasts 892
scalar World.node[55].nic.mac1609_4 SentPackets 416
scalar World.node[55].nic.mac1609_4 SentAcknowledgements 0
scalar World.node[55].nic.mac1609_4 SNIRLostPackets 33
scalar World.node[55].nic.mac1609_4 RXTXLostPackets 11
scalar World.node[55].nic.mac1609_4 TotalLostPackets 44
scalar World.node[55].nic.mac1609_4 DroppedPacketsInMac 0
scalar World.node[55].nic.mac1609_4 TooLittleTime 0
scalar World.node[55].nic.mac1609_4 TimesIntoBackoff 417
scalar World.node[55].nic.mac1609_4 SlotsBackoff 3245
scalar World.node[55].nic.mac1609_4 NumInternalContention 0
scalar World.node[55].nic.mac1609_4 totalBusyTime 0.218776060583
scalar World.node[64].appl.middleware.CaService #cam_sent 182
scalar World.node[64].appl.middleware.ExampleService #full_proofs 1
scalar World.node[64].appl.middleware.ExampleService #half_proofs 0
scalar World.node[64].appl.middleware.ExampleService #failed_proofs 0
scalar World.node[64].appl.middleware.ExampleService #loc_proof_send 1
scalar World.node[64].nic.phy80211p busyTime 0.00056518518518519
scalar World.node[64].nic.mac1609_4 ReceivedUnicastPackets 0
scalar World.node[64].nic.mac1609_4 ReceivedBroadcasts 181
scalar World.node[64].nic.mac1609_4 SentPackets 183
scalar World.node[64].nic.mac1609_4 SentAcknowledgements 0
scalar World.node[64].nic.mac1609_4 SNIRLostPackets 6
scalar World.node[64].nic.mac1609_4 RXTXLostPackets 0
scalar World.node[64].nic.mac1609_4 TotalLostPackets 6
scalar World.node[64].nic.mac1609_4 DroppedPacketsInMac 0
scalar World.node[64].nic.mac1609_4 TooLittleTime 0
scalar World.node[64].nic.mac1609_4 TimesIntoBackoff 183
scalar World.node[64].nic.mac1609_4 SlotsBackoff 1337
scalar World.node[64].nic.mac1609_4 NumInternalContention 0
scalar World.node[64].nic.mac1609_4 totalBusyTime 0.060503
scalar World.node[49].appl.middleware.CaService #cam_sent 664
scalar World.node[49].appl.middleware.ExampleService #full_proofs 2
scalar World.node[49].appl.middleware.ExampleService #half_proofs 2
scalar World.node[49].appl.middleware.ExampleService #failed_proofs 0
scalar World.node[49].appl.middleware.ExampleService #loc_proof_send 14
scalar World.node[49].nic.phy80211p busyTime 0.0010628641975309
scalar World.node[49].nic.mac1609_4 ReceivedUnicastPackets 0
scalar World.node[49].nic.mac1609_4 ReceivedBroadcasts 2012
scalar World.node[49].nic.mac1609_4 SentPackets 678
scalar World.node[49].nic.mac1609_4 SentAcknowledgements 0
scalar World.node[49].nic.mac1609_4 SNIRLostPackets 104
scalar World.node[49].nic.mac1609_4 RXTXLostPackets 6
scalar World.node[49].nic.mac1609_4 TotalLostPackets 110
scalar World.node[49].nic.mac1609_4 DroppedPacketsInMac 0
scalar World.node[49].nic.mac1609_4 TooLittleTime 0
scalar World.node[49].nic.mac1609_4 TimesIntoBackoff 678
scalar World.node[49].nic.mac1609_4 SlotsBackoff 5267
scalar World.node[49].nic.mac1609_4 NumInternalContention 0
scalar World.node[49].nic.mac1609_4 totalBusyTime 0.454902090359
scalar World.node[60].appl.middleware.CaService #cam_sent 452
scalar World.node[60].appl.middleware.ExampleService #full_proofs 0
scalar World.node[60].appl.middleware.ExampleService #half_proofs 1
scalar World.node[60].appl.middleware.ExampleService #failed_proofs 1
scalar World.node[60].appl.middleware.ExampleService #loc_proof_send 5
scalar World.node[60].nic.phy80211p busyTime 0.00051231578947368
scalar World.node[60].nic.mac1609_4 ReceivedUnicastPackets 0
scalar World.node[60].nic.mac1609_4 ReceivedBroadcasts 443
scalar World.node[60].nic.mac1609_4 SentPackets 457
scalar World.node[60].nic.mac1609_4 SentAcknowledgements 0
scalar World.node[60].nic.mac1609_4 SNIRLostPackets 34
scalar World.node[60].nic.mac1609_4 RXTXLostPackets 1
scalar World.node[60].nic.mac1609_4 TotalLostPackets 35
scalar World.node[60].nic.mac1609_4 DroppedPacketsInMac 0
scalar World.node[60].nic.mac1609_4 TooLittleTime 0
scalar World.node[60].nic.mac1609_4 TimesIntoBackoff 458
scalar World.node[60].nic.mac1609_4 SlotsBackoff 3420
scalar World.node[60].nic.mac1609_4 NumInternalContention 0
scalar World.node[60].nic.mac1609_4 totalBusyTime 0.152673
scalar World.node[61].appl.middleware.CaService #cam_sent 425
scalar World.node[61].appl.middleware.ExampleService #full_proofs 1
scalar World.node[61].appl.middleware.ExampleService #half_proofs 0
scalar World.node[61].appl.middleware.ExampleService #failed_proofs 1
scalar World.node[61].appl.middleware.ExampleService #loc_proof_send 4
scalar World.node[61].nic.phy80211p busyTime 0.00063739759036144
scalar World.node[61].nic.mac1609_4 ReceivedUnicastPackets 0
scalar World.node[61].nic.mac1609_4 ReceivedBroadcasts 526
scalar World.node[61].nic.mac1609_4 SentPackets 429
scalar World.node[61].nic.mac1609_4 SentAcknowledgements 0
scalar World.node[61].nic.mac1609_4 SNIRLostPackets 123
scalar World.node[61].nic.mac1609_4 RXTXLostPackets 1
scalar World.node[61].nic.mac1609_4 TotalLostPackets 124
scalar World.node[61].nic.mac1609_4 DroppedPacketsInMac 0
scalar World.node[61].nic.mac1609_4 TooLittleTime 0
scalar World.node[61].nic.mac1609_4 TimesIntoBackoff 430
scalar World.node[61].nic.mac1609_4 SlotsBackoff 3247
scalar World.node[61].nic.mac1609_4 NumInternalContention 0
scalar World.node[61].nic.mac1609_4 totalBusyTime 0.176173
scalar World.node[65].appl.middleware.CaService #cam_sent 404
scalar World.node[65].appl.middleware.ExampleService #full_proofs 2
scalar World.node[65].appl.middleware.ExampleService #half_proofs 0
scalar World.node[65].appl.middleware.ExampleService #failed_proofs 0
scalar World.node[65].appl.middleware.ExampleService #loc_proof_send 5
scalar World.node[65].nic.phy80211p busyTime 0.00045533884297521
scalar World.node[65].nic.mac1609_4 ReceivedUnicastPackets 0
scalar World.node[65].nic.mac1609_4 ReceivedBroadcasts 292
scalar World.node[65].nic.mac1609_4 SentPackets 409
scalar World.node[65].nic.mac1609_4 SentAcknowledgements 0
scalar World.node[65].nic.mac1609_4 SNIRLostPackets 46
scalar World.node[65].nic.mac1609_4 RXTXLostPackets 0
scalar World.node[65].nic.mac1609_4 TotalLostPackets 46
scalar World.node[65].nic.mac1609_4 DroppedPacketsInMac 0
scalar World.node[65].nic.mac1609_4 TooLittleTime 0
scalar World.node[65].nic.mac1609_4 TimesIntoBackoff 409
scalar World.node[65].nic.mac1609_4 SlotsBackoff 2911
scalar World.node[65].nic.mac1609_4 NumInternalContention 0
scalar World.node[65].nic.mac1609_4 totalBusyTime 0.121961
scalar World.node[66].appl.middleware.CaService #cam_sent 351
scalar World.node[66].appl.middleware.ExampleService #full_proofs 0
scalar World.node[66].appl.middleware.ExampleService #half_proofs 1
scalar World.node[66].appl.middleware.ExampleService #failed_proofs 0
scalar World.node[66].appl.middleware.ExampleService #loc_proof_send 3
scalar World.node[66].nic.phy80211p busyTime 0.00058126829268293
scalar World.node[66].nic.mac1609_4 ReceivedUnicastPackets 0
scalar World.node[66].nic.mac1609_4 ReceivedBroadcasts 402
scalar World.node[66].nic.mac1609_4 SentPackets 354
scalar World.node[66].nic.mac1609_4 SentAcknowledgements 0
scalar World.node[66].nic.mac1609_4 SNIRLostPackets 36
scalar World.node[66].nic.mac1609_4 RXTXLostPackets 1
scalar World.node[66].nic.mac1609_4 TotalLostPackets 37
scalar World.node[66].nic.mac1609_4 DroppedPacketsInMac 0
scalar World.node[66].nic.mac1609_4 TooLittleTime 0
scalar World.node[66].nic.mac1609_4 TimesIntoBackoff 354
scalar World.node[66].nic.mac1609_4 SlotsBackoff 2471
scalar World.node[66].nic.mac1609_4 NumInternalContention 0
scalar World.node[66].nic.mac1609_4 totalBusyTime 0.129474050042
scalar World.node[67].appl.middleware.CaService #cam_sent 280
scalar World.node[67].appl.middleware.ExampleService #full_proofs 0
scalar World.node[67].appl.middleware.ExampleService #half_proofs 2
scalar World.node[67].appl.middleware.ExampleService #failed_proofs 0
scalar World.node[67].appl.middleware.ExampleService #loc_proof_send 6
scalar World.node[67].nic.phy80211p busyTime 0.00077907142857143
scalar World.node[67].nic.mac1609_4 ReceivedUnicastPackets 0
scalar World.node[67].nic.mac1609_4 ReceivedBroadcasts 475
scalar World.node[67].nic.mac1609_4 SentPackets 286
scalar World.node[67].nic.mac1609_4 SentAcknowledgements 0
scalar World.node[67].nic.mac1609_4 SNIRLostPackets 61
scalar World.node[67].nic.mac1609_4 RXTXLostPackets 1
scalar World.node[67].nic.mac1609_4 TotalLostPackets 62
scalar World.node[67].nic.mac1609_4 DroppedPacketsInMac 0
scalar World.node[67].nic.mac1609_4 TooLittleTime 0
scalar World.node[67].nic.mac1609_4 TimesIntoBackoff 286
scalar World.node[67].nic.mac1609_4 SlotsBackoff 2217
scalar World.node[67].nic.mac1609_4 NumInternalContention 0
scalar World.node[67].nic.mac1609_4 totalBusyTime 0.133638
scalar World.node[62].appl.middleware.CaService #cam_sent 637
scalar World.node[62].appl.middleware.ExampleService #full_proofs 3
scalar World.node[62].appl.middleware.ExampleService #half_proofs 0
scalar World.node[62].appl.middleware.ExampleService #failed_proofs 0
scalar World.node[62].appl.middleware.ExampleService #loc_proof_send 8
scalar World.node[62].nic.phy80211p busyTime 0.00064688461538461
scalar World.node[62].nic.mac1609_4 ReceivedUnicastPackets 0
scalar World.node[62].nic.mac1609_4 ReceivedBroadcasts 772
scalar World.node[62].nic.mac1609_4 SentPackets 645
scalar World.node[62].nic.mac1609_4 SentAcknowledgements 0
scalar World.node[62].nic.mac1609_4 SNIRLostPackets 52
scalar World.node[62].nic.mac1609_4 RXTXLostPackets 3
scalar World.node[62].nic.mac1609_4 TotalLostPackets 55
scalar World.node[62].nic.mac1609_4 DroppedPacketsInMac 0
scalar World.node[62].nic.mac1609_4 TooLittleTime 0
scalar World.node[62].nic.mac1609_4 TimesIntoBackoff 646
scalar World.node[62].nic.mac1609_4 SlotsBackoff 4994
scalar World.node[62].nic.mac1609_4 NumInternalContention 0
scalar World.node[62].nic.mac1609_4 totalBusyTime 0.239997
scalar World.node[75].appl.middleware.CaService #cam_sent 158
scalar World.node[75].appl.middleware.ExampleService #full_proofs 1
scalar World.node[75].appl.middleware.ExampleService #half_proofs 0
scalar World.node[75].appl.middleware.ExampleService #failed_proofs 0
scalar World.node[75].appl.middleware.ExampleService #loc_proof_send 2
scalar World.node[75].nic.phy80211p busyTime 0.00037089361702128
scalar World.node[75].nic.mac1609_4 ReceivedUnicastPackets 0
scalar World.node[75].nic.mac1609_4 ReceivedBroadcasts 96
scalar World.node[75].nic.mac1609_4 SentPackets 160
scalar World.node[75].nic.mac1609_4 SentAcknowledgements 0
scalar World.node[75].nic.mac1609_4 SNIRLostPackets 11
scalar World.node[75].nic.mac1609_4 RXTXLostPackets 0
scalar World.node[75].nic.mac1609_4 TotalLostPackets 11
scalar World.node[75].nic.mac1609_4 DroppedPacketsInMac 0
scalar World.node[75].nic.mac1609_4 TooLittleTime 0
scalar World.node[75].nic.mac1609_4 TimesIntoBackoff 160
scalar World.node[75].nic.mac1609_4 SlotsBackoff 1251
scalar World.node[75].nic.mac1609_4 NumInternalContention 0
scalar World.node[75].nic.mac1609_4 totalBusyTime 0.043592
scalar World.node[63].appl.middleware.CaService #cam_sent 523
scalar World.node[63].appl.middleware.ExampleService #full_proofs 3
scalar World.node[63].appl.middleware.ExampleService #half_proofs 0
scalar World.node[63].appl.middleware.ExampleService #failed_proofs 0
scalar World.node[63].appl.middleware.ExampleService #loc_proof_send 7
scalar World.node[63].nic.phy80211p busyTime 0.00075594258373205
scalar World.node[63].nic.mac1609_4 ReceivedUnicastPackets 0
scalar World.node[63].nic.mac1609_4 ReceivedBroadcasts 912
scalar World.node[63].nic.mac1609_4 SentPackets 530
scalar World.node[63].nic.mac1609_4 SentAcknowledgements 0
scalar World.node[63].nic.mac1609_4 SNIRLostPackets 56
scalar World.node[63].nic.mac1609_4 RXTXLostPackets 3
scalar World.node[63].nic.mac1609_4 TotalLostPackets 59
scalar World.node[63].nic.mac1609_4 DroppedPacketsInMac 0
scalar World.node[63].nic.mac1609_4 TooLittleTime 0
scalar World.node[63].nic.mac1609_4 TimesIntoBackoff 530
[...]
scalar World.node[222].nic.mac1609_4 TimesIntoBackoff 553
scalar World.node[222].nic.mac1609_4 SlotsBackoff 4077
scalar World.node[222].nic.mac1609_4 NumInternalContention 0
scalar World.node[222].nic.mac1609_4 totalBusyTime 0.337934
scalar World.node[224].appl.middleware.CaService #cam_sent 469
scalar World.node[224].appl.middleware.ExampleService #full_proofs 2
scalar World.node[224].appl.middleware.ExampleService #half_proofs 1
scalar World.node[224].appl.middleware.ExampleService #failed_proofs 0
scalar World.node[224].appl.middleware.ExampleService #loc_proof_send 9
scalar World.node[224].nic.phy80211p busyTime 0.0012220253164557
scalar World.node[224].nic.mac1609_4 ReceivedUnicastPackets 0
scalar World.node[224].nic.mac1609_4 ReceivedBroadcasts 1030
scalar World.node[224].nic.mac1609_4 SentPackets 478
scalar World.node[224].nic.mac1609_4 SentAcknowledgements 0
scalar World.node[224].nic.mac1609_4 SNIRLostPackets 160
scalar World.node[224].nic.mac1609_4 RXTXLostPackets 4
scalar World.node[224].nic.mac1609_4 TotalLostPackets 164
scalar World.node[224].nic.mac1609_4 DroppedPacketsInMac 0
scalar World.node[224].nic.mac1609_4 TooLittleTime 0
scalar World.node[224].nic.mac1609_4 TimesIntoBackoff 479
scalar World.node[224].nic.mac1609_4 SlotsBackoff 3567
scalar World.node[224].nic.mac1609_4 NumInternalContention 0
scalar World.node[224].nic.mac1609_4 totalBusyTime 0.269838000997
scalar World.node[232].appl.middleware.CaService #cam_sent 138
scalar World.node[232].appl.middleware.ExampleService #full_proofs 1
scalar World.node[232].appl.middleware.ExampleService #half_proofs 0
scalar World.node[232].appl.middleware.ExampleService #failed_proofs 0
scalar World.node[232].appl.middleware.ExampleService #loc_proof_send 1
scalar World.node[232].nic.phy80211p busyTime 0.00049775609756098
scalar World.node[232].nic.mac1609_4 ReceivedUnicastPackets 0
scalar World.node[232].nic.mac1609_4 ReceivedBroadcasts 113
scalar World.node[232].nic.mac1609_4 SentPackets 139
scalar World.node[232].nic.mac1609_4 SentAcknowledgements 0
scalar World.node[232].nic.mac1609_4 SNIRLostPackets 12
scalar World.node[232].nic.mac1609_4 RXTXLostPackets 0
scalar World.node[232].nic.mac1609_4 TotalLostPackets 12
scalar World.node[232].nic.mac1609_4 DroppedPacketsInMac 0
scalar World.node[232].nic.mac1609_4 TooLittleTime 0
scalar World.node[232].nic.mac1609_4 TimesIntoBackoff 139
scalar World.node[232].nic.mac1609_4 SlotsBackoff 1010
scalar World.node[232].nic.mac1609_4 NumInternalContention 0
scalar World.node[232].nic.mac1609_4 totalBusyTime 0.043179
scalar World.node[230].appl.middleware.CaService #cam_sent 278
scalar World.node[230].appl.middleware.ExampleService #full_proofs 1
scalar World.node[230].appl.middleware.ExampleService #half_proofs 0
scalar World.node[230].appl.middleware.ExampleService #failed_proofs 0
scalar World.node[230].appl.middleware.ExampleService #loc_proof_send 3
scalar World.node[230].nic.phy80211p busyTime 0.00077889156626506
scalar World.node[230].nic.mac1609_4 ReceivedUnicastPackets 0
scalar World.node[230].nic.mac1609_4 ReceivedBroadcasts 365
scalar World.node[230].nic.mac1609_4 SentPackets 281
scalar World.node[230].nic.mac1609_4 SentAcknowledgements 0
scalar World.node[230].nic.mac1609_4 SNIRLostPackets 33
scalar World.node[230].nic.mac1609_4 RXTXLostPackets 0
scalar World.node[230].nic.mac1609_4 TotalLostPackets 33
scalar World.node[230].nic.mac1609_4 DroppedPacketsInMac 0
scalar World.node[230].nic.mac1609_4 TooLittleTime 0
scalar World.node[230].nic.mac1609_4 TimesIntoBackoff 282
scalar World.node[230].nic.mac1609_4 SlotsBackoff 2031
scalar World.node[230].nic.mac1609_4 NumInternalContention 0
scalar World.node[230].nic.mac1609_4 totalBusyTime 0.110617
scalar World.node[227].appl.middleware.CaService #cam_sent 371
scalar World.node[227].appl.middleware.ExampleService #full_proofs 1
scalar World.node[227].appl.middleware.ExampleService #half_proofs 0
scalar World.node[227].appl.middleware.ExampleService #failed_proofs 0
scalar World.node[227].appl.middleware.ExampleService #loc_proof_send 6
scalar World.node[227].nic.phy80211p busyTime 0.00065814925373134
scalar World.node[227].nic.mac1609_4 ReceivedUnicastPackets 0
scalar World.node[227].nic.mac1609_4 ReceivedBroadcasts 475
scalar World.node[227].nic.mac1609_4 SentPackets 377
scalar World.node[227].nic.mac1609_4 SentAcknowledgements 0
scalar World.node[227].nic.mac1609_4 SNIRLostPackets 68
scalar World.node[227].nic.mac1609_4 RXTXLostPackets 3
scalar World.node[227].nic.mac1609_4 TotalLostPackets 71
scalar World.node[227].nic.mac1609_4 DroppedPacketsInMac 0
scalar World.node[227].nic.mac1609_4 TooLittleTime 0
scalar World.node[227].nic.mac1609_4 TimesIntoBackoff 378
scalar World.node[227].nic.mac1609_4 SlotsBackoff 2716
scalar World.node[227].nic.mac1609_4 NumInternalContention 0
scalar World.node[227].nic.mac1609_4 totalBusyTime 0.149905
scalar World.node[226].appl.middleware.CaService #cam_sent 384
scalar World.node[226].appl.middleware.ExampleService #full_proofs 0
scalar World.node[226].appl.middleware.ExampleService #half_proofs 1
scalar World.node[226].appl.middleware.ExampleService #failed_proofs 1
scalar World.node[226].appl.middleware.ExampleService #loc_proof_send 6
scalar World.node[226].nic.phy80211p busyTime 0.00081296
scalar World.node[226].nic.mac1609_4 ReceivedUnicastPackets 0
scalar World.node[226].nic.mac1609_4 ReceivedBroadcasts 685
scalar World.node[226].nic.mac1609_4 SentPackets 390
scalar World.node[226].nic.mac1609_4 SentAcknowledgements 0
scalar World.node[226].nic.mac1609_4 SNIRLostPackets 64
scalar World.node[226].nic.mac1609_4 RXTXLostPackets 3
scalar World.node[226].nic.mac1609_4 TotalLostPackets 67
scalar World.node[226].nic.mac1609_4 DroppedPacketsInMac 0
scalar World.node[226].nic.mac1609_4 TooLittleTime 0
scalar World.node[226].nic.mac1609_4 TimesIntoBackoff 390
scalar World.node[226].nic.mac1609_4 SlotsBackoff 3065
scalar World.node[226].nic.mac1609_4 NumInternalContention 0
scalar World.node[226].nic.mac1609_4 totalBusyTime 0.185662
scalar World.node[228].appl.middleware.CaService #cam_sent 336
scalar World.node[228].appl.middleware.ExampleService #full_proofs 0
scalar World.node[228].appl.middleware.ExampleService #half_proofs 1
scalar World.node[228].appl.middleware.ExampleService #failed_proofs 1
scalar World.node[228].appl.middleware.ExampleService #loc_proof_send 5
scalar World.node[228].nic.phy80211p busyTime 0.0012358709677419
scalar World.node[228].nic.mac1609_4 ReceivedUnicastPackets 0
scalar World.node[228].nic.mac1609_4 ReceivedBroadcasts 757
scalar World.node[228].nic.mac1609_4 SentPackets 341
scalar World.node[228].nic.mac1609_4 SentAcknowledgements 0
scalar World.node[228].nic.mac1609_4 SNIRLostPackets 185
scalar World.node[228].nic.mac1609_4 RXTXLostPackets 2
scalar World.node[228].nic.mac1609_4 TotalLostPackets 187
scalar World.node[228].nic.mac1609_4 DroppedPacketsInMac 0
scalar World.node[228].nic.mac1609_4 TooLittleTime 0
scalar World.node[228].nic.mac1609_4 TimesIntoBackoff 341
scalar World.node[228].nic.mac1609_4 SlotsBackoff 2654
scalar World.node[228].nic.mac1609_4 NumInternalContention 0
scalar World.node[228].nic.mac1609_4 totalBusyTime 0.208581
scalar World.node[225].appl.middleware.CaService #cam_sent 472
scalar World.node[225].appl.middleware.ExampleService #full_proofs 2
scalar World.node[225].appl.middleware.ExampleService #half_proofs 1
scalar World.node[225].appl.middleware.ExampleService #failed_proofs 0
scalar World.node[225].appl.middleware.ExampleService #loc_proof_send 9
scalar World.node[225].nic.phy80211p busyTime 0.0011824269662921
scalar World.node[225].nic.mac1609_4 ReceivedUnicastPackets 0
scalar World.node[225].nic.mac1609_4 ReceivedBroadcasts 1267
scalar World.node[225].nic.mac1609_4 SentPackets 481
scalar World.node[225].nic.mac1609_4 SentAcknowledgements 0
scalar World.node[225].nic.mac1609_4 SNIRLostPackets 27
scalar World.node[225].nic.mac1609_4 RXTXLostPackets 10
scalar World.node[225].nic.mac1609_4 TotalLostPackets 37
scalar World.node[225].nic.mac1609_4 DroppedPacketsInMac 0
scalar World.node[225].nic.mac1609_4 TooLittleTime 0
scalar World.node[225].nic.mac1609_4 TimesIntoBackoff 481
scalar World.node[225].nic.mac1609_4 SlotsBackoff 3557
scalar World.node[225].nic.mac1609_4 NumInternalContention 0
scalar World.node[225].nic.mac1609_4 totalBusyTime 0.288753083441
scalar World.node[234].appl.middleware.CaService #cam_sent 296
scalar World.node[234].appl.middleware.ExampleService #full_proofs 1
scalar World.node[234].appl.middleware.ExampleService #half_proofs 0
scalar World.node[234].appl.middleware.ExampleService #failed_proofs 0
scalar World.node[234].appl.middleware.ExampleService #loc_proof_send 1
scalar World.node[234].nic.phy80211p busyTime 0.00043892783505155
scalar World.node[234].nic.mac1609_4 ReceivedUnicastPackets 0
scalar World.node[234].nic.mac1609_4 ReceivedBroadcasts 251
scalar World.node[234].nic.mac1609_4 SentPackets 297
scalar World.node[234].nic.mac1609_4 SentAcknowledgements 0
scalar World.node[234].nic.mac1609_4 SNIRLostPackets 10
scalar World.node[234].nic.mac1609_4 RXTXLostPackets 0
scalar World.node[234].nic.mac1609_4 TotalLostPackets 10
scalar World.node[234].nic.mac1609_4 DroppedPacketsInMac 0
scalar World.node[234].nic.mac1609_4 TooLittleTime 0
scalar World.node[234].nic.mac1609_4 TimesIntoBackoff 297
scalar World.node[234].nic.mac1609_4 SlotsBackoff 2305
scalar World.node[234].nic.mac1609_4 NumInternalContention 0
scalar World.node[234].nic.mac1609_4 totalBusyTime 0.091345
scalar World.node[237].appl.middleware.CaService #cam_sent 144
scalar World.node[237].appl.middleware.ExampleService #full_proofs 0
scalar World.node[237].appl.middleware.ExampleService #half_proofs 0
scalar World.node[237].appl.middleware.ExampleService #failed_proofs 0
scalar World.node[237].appl.middleware.ExampleService #loc_proof_send 0
scalar World.node[237].nic.phy80211p busyTime 0.00012297674418605
scalar World.node[237].nic.mac1609_4 ReceivedUnicastPackets 0
scalar World.node[237].nic.mac1609_4 ReceivedBroadcasts 29
scalar World.node[237].nic.mac1609_4 SentPackets 144
scalar World.node[237].nic.mac1609_4 SentAcknowledgements 0
scalar World.node[237].nic.mac1609_4 SNIRLostPackets 3
scalar World.node[237].nic.mac1609_4 RXTXLostPackets 0
scalar World.node[237].nic.mac1609_4 TotalLostPackets 3
scalar World.node[237].nic.mac1609_4 DroppedPacketsInMac 0
scalar World.node[237].nic.mac1609_4 TooLittleTime 0
scalar World.node[237].nic.mac1609_4 TimesIntoBackoff 144
scalar World.node[237].nic.mac1609_4 SlotsBackoff 1065
scalar World.node[237].nic.mac1609_4 NumInternalContention 0
scalar World.node[237].nic.mac1609_4 totalBusyTime 0.028936
scalar World.node[231].appl.middleware.CaService #cam_sent 388
scalar World.node[231].appl.middleware.ExampleService #full_proofs 2
scalar World.node[231].appl.middleware.ExampleService #half_proofs 0
scalar World.node[231].appl.middleware.ExampleService #failed_proofs 0
scalar World.node[231].appl.middleware.ExampleService #loc_proof_send 5
scalar World.node[231].nic.phy80211p busyTime 0.00066754362416107
scalar World.node[231].nic.mac1609_4 ReceivedUnicastPackets 0
scalar World.node[231].nic.mac1609_4 ReceivedBroadcasts 601
scalar World.node[231].nic.mac1609_4 SentPackets 393
scalar World.node[231].nic.mac1609_4 SentAcknowledgements 0
scalar World.node[231].nic.mac1609_4 SNIRLostPackets 9
scalar World.node[231].nic.mac1609_4 RXTXLostPackets 0
scalar World.node[231].nic.mac1609_4 TotalLostPackets 9
scalar World.node[231].nic.mac1609_4 DroppedPacketsInMac 0
scalar World.node[231].nic.mac1609_4 TooLittleTime 0
scalar World.node[231].nic.mac1609_4 TimesIntoBackoff 393
scalar World.node[231].nic.mac1609_4 SlotsBackoff 3156
scalar World.node[231].nic.mac1609_4 NumInternalContention 0
scalar World.node[231].nic.mac1609_4 totalBusyTime 0.163929
scalar World.node[235].appl.middleware.CaService #cam_sent 377
scalar World.node[235].appl.middleware.ExampleService #full_proofs 0
scalar World.node[235].appl.middleware.ExampleService #half_proofs 0
scalar World.node[235].appl.middleware.ExampleService #failed_proofs 0
scalar World.node[235].appl.middleware.ExampleService #loc_proof_send 3
scalar World.node[235].nic.phy80211p busyTime 0.00057136134453782
scalar World.node[235].nic.mac1609_4 ReceivedUnicastPackets 0
scalar World.node[235].nic.mac1609_4 ReceivedBroadcasts 398
scalar World.node[235].nic.mac1609_4 SentPackets 380
scalar World.node[235].nic.mac1609_4 SentAcknowledgements 0
scalar World.node[235].nic.mac1609_4 SNIRLostPackets 19
scalar World.node[235].nic.mac1609_4 RXTXLostPackets 3
scalar World.node[235].nic.mac1609_4 TotalLostPackets 22
scalar World.node[235].nic.mac1609_4 DroppedPacketsInMac 0
scalar World.node[235].nic.mac1609_4 TooLittleTime 0
scalar World.node[235].nic.mac1609_4 TimesIntoBackoff 381
scalar World.node[235].nic.mac1609_4 SlotsBackoff 3212
scalar World.node[235].nic.mac1609_4 NumInternalContention 0
scalar World.node[235].nic.mac1609_4 totalBusyTime 0.1301
scalar World.node[229].appl.middleware.CaService #cam_sent 604
scalar World.node[229].appl.middleware.ExampleService #full_proofs 1
scalar World.node[229].appl.middleware.ExampleService #half_proofs 1
scalar World.node[229].appl.middleware.ExampleService #failed_proofs 1
scalar World.node[229].appl.middleware.ExampleService #loc_proof_send 10
scalar World.node[229].nic.phy80211p busyTime 0.00090337560975609
scalar World.node[229].nic.mac1609_4 ReceivedUnicastPackets 0
scalar World.node[229].nic.mac1609_4 ReceivedBroadcasts 1106
scalar World.node[229].nic.mac1609_4 SentPackets 614
scalar World.node[229].nic.mac1609_4 SentAcknowledgements 0
scalar World.node[229].nic.mac1609_4 SNIRLostPackets 32
scalar World.node[229].nic.mac1609_4 RXTXLostPackets 6
scalar World.node[229].nic.mac1609_4 TotalLostPackets 38
scalar World.node[229].nic.mac1609_4 DroppedPacketsInMac 0
scalar World.node[229].nic.mac1609_4 TooLittleTime 0
scalar World.node[229].nic.mac1609_4 TimesIntoBackoff 615
scalar World.node[229].nic.mac1609_4 SlotsBackoff 4566
scalar World.node[229].nic.mac1609_4 NumInternalContention 0
scalar World.node[229].nic.mac1609_4 totalBusyTime 0.285374
scalar World.node[238].appl.middleware.CaService #cam_sent 409
scalar World.node[238].appl.middleware.ExampleService #full_proofs 1
scalar World.node[238].appl.middleware.ExampleService #half_proofs 0
scalar World.node[238].appl.middleware.ExampleService #failed_proofs 1
scalar World.node[238].appl.middleware.ExampleService #loc_proof_send 7
scalar World.node[238].nic.phy80211p busyTime 0.00067430136986302
scalar World.node[238].nic.mac1609_4 ReceivedUnicastPackets 0
scalar World.node[238].nic.mac1609_4 ReceivedBroadcasts 585
scalar World.node[238].nic.mac1609_4 SentPackets 416
scalar World.node[238].nic.mac1609_4 SentAcknowledgements 0
scalar World.node[238].nic.mac1609_4 SNIRLostPackets 17
scalar World.node[238].nic.mac1609_4 RXTXLostPackets 4
scalar World.node[238].nic.mac1609_4 TotalLostPackets 21
scalar World.node[238].nic.mac1609_4 DroppedPacketsInMac 0
scalar World.node[238].nic.mac1609_4 TooLittleTime 0
scalar World.node[238].nic.mac1609_4 TimesIntoBackoff 416
scalar World.node[238].nic.mac1609_4 SlotsBackoff 3270
scalar World.node[238].nic.mac1609_4 NumInternalContention 0
scalar World.node[238].nic.mac1609_4 totalBusyTime 0.166304
scalar World.node[233].appl.middleware.CaService #cam_sent 617
scalar World.node[233].appl.middleware.ExampleService #full_proofs 1
scalar World.node[233].appl.middleware.ExampleService #half_proofs 2
scalar World.node[233].appl.middleware.ExampleService #failed_proofs 1
scalar World.node[233].appl.middleware.ExampleService #loc_proof_send 9
scalar World.node[233].nic.phy80211p busyTime 0.00075349787234042
scalar World.node[233].nic.mac1609_4 ReceivedUnicastPackets 0
scalar World.node[233].nic.mac1609_4 ReceivedBroadcasts 1067
scalar World.node[233].nic.mac1609_4 SentPackets 626
scalar World.node[233].nic.mac1609_4 SentAcknowledgements 0
scalar World.node[233].nic.mac1609_4 SNIRLostPackets 20
scalar World.node[233].nic.mac1609_4 RXTXLostPackets 2
scalar World.node[233].nic.mac1609_4 TotalLostPackets 22
scalar World.node[233].nic.mac1609_4 DroppedPacketsInMac 0
scalar World.node[233].nic.mac1609_4 TooLittleTime 0
scalar World.node[233].nic.mac1609_4 TimesIntoBackoff 627
scalar World.node[233].nic.mac1609_4 SlotsBackoff 4735
scalar World.node[233].nic.mac1609_4 NumInternalContention 0
scalar World.node[233].nic.mac1609_4 totalBusyTime 0.279106036016
scalar World.node[236].appl.middleware.CaService #cam_sent 404
scalar World.node[236].appl.middleware.ExampleService #full_proofs 1
scalar World.node[236].appl.middleware.ExampleService #half_proofs 0
scalar World.node[236].appl.middleware.ExampleService #failed_proofs 0
scalar World.node[236].appl.middleware.ExampleService #loc_proof_send 4
scalar World.node[236].nic.phy80211p busyTime 0.00022977777777778
scalar World.node[236].nic.mac1609_4 ReceivedUnicastPackets 0
scalar World.node[236].nic.mac1609_4 ReceivedBroadcasts 252
scalar World.node[236].nic.mac1609_4 SentPackets 408
scalar World.node[236].nic.mac1609_4 SentAcknowledgements 0
scalar World.node[236].nic.mac1609_4 SNIRLostPackets 2
scalar World.node[236].nic.mac1609_4 RXTXLostPackets 0
scalar World.node[236].nic.mac1609_4 TotalLostPackets 2
scalar World.node[236].nic.mac1609_4 DroppedPacketsInMac 0
scalar World.node[236].nic.mac1609_4 TooLittleTime 0
scalar World.node[236].nic.mac1609_4 TimesIntoBackoff 408
scalar World.node[236].nic.mac1609_4 SlotsBackoff 3105
scalar World.node[236].nic.mac1609_4 NumInternalContention 0
scalar World.node[236].nic.mac1609_4 totalBusyTime 0.10852
scalar World.node[239].appl.middleware.CaService #cam_sent 412
scalar World.node[239].appl.middleware.ExampleService #full_proofs 1
scalar World.node[239].appl.middleware.ExampleService #half_proofs 1
scalar World.node[239].appl.middleware.ExampleService #failed_proofs 0
scalar World.node[239].appl.middleware.ExampleService #loc_proof_send 6
scalar World.node[239].nic.phy80211p busyTime 0.00060739534883721
scalar World.node[239].nic.mac1609_4 ReceivedUnicastPackets 0
scalar World.node[239].nic.mac1609_4 ReceivedBroadcasts 632
scalar World.node[239].nic.mac1609_4 SentPackets 418
scalar World.node[239].nic.mac1609_4 SentAcknowledgements 0
scalar World.node[239].nic.mac1609_4 SNIRLostPackets 8
scalar World.node[239].nic.mac1609_4 RXTXLostPackets 4
scalar World.node[239].nic.mac1609_4 TotalLostPackets 12
scalar World.node[239].nic.mac1609_4 DroppedPacketsInMac 0
scalar World.node[239].nic.mac1609_4 TooLittleTime 0
scalar World.node[239].nic.mac1609_4 TimesIntoBackoff 418
scalar World.node[239].nic.mac1609_4 SlotsBackoff 3065
scalar World.node[239].nic.mac1609_4 NumInternalContention 0
scalar World.node[239].nic.mac1609_4 totalBusyTime 0.172978013914
scalar World.node[240].appl.middleware.CaService #cam_sent 436
scalar World.node[240].appl.middleware.ExampleService #full_proofs 1
scalar World.node[240].appl.middleware.ExampleService #half_proofs 0
scalar World.node[240].appl.middleware.ExampleService #failed_proofs 0
scalar World.node[240].appl.middleware.ExampleService #loc_proof_send 4
scalar World.node[240].nic.phy80211p busyTime 0.00034079041916168
scalar World.node[240].nic.mac1609_4 ReceivedUnicastPackets 0
scalar World.node[240].nic.mac1609_4 ReceivedBroadcasts 349
scalar World.node[240].nic.mac1609_4 SentPackets 440
scalar World.node[240].nic.mac1609_4 SentAcknowledgements 0
scalar World.node[240].nic.mac1609_4 SNIRLostPackets 0
scalar World.node[240].nic.mac1609_4 RXTXLostPackets 2
scalar World.node[240].nic.mac1609_4 TotalLostPackets 2
scalar World.node[240].nic.mac1609_4 DroppedPacketsInMac 0
scalar World.node[240].nic.mac1609_4 TooLittleTime 0
scalar World.node[240].nic.mac1609_4 TimesIntoBackoff 440
scalar World.node[240].nic.mac1609_4 SlotsBackoff 3401
scalar World.node[240].nic.mac1609_4 NumInternalContention 0
scalar World.node[240].nic.mac1609_4 totalBusyTime 0.129176

