version 2
run Obstacles_Night-2-20191117-11:14:22-5434
attr configname Obstacles_Night
attr datetime 20191117-11:14:22
attr experiment Obstacles_Night
attr inifile omnetpp.ini
attr iterationvars $0=80
attr iterationvarsf 80-
attr measurement $0=80
attr network artery.veins.World
attr processid 5434
attr repetition 0
attr replication #0
attr resultdir results
attr runnumber 2
attr seedset 2
param *.traci.launcher.sumocfg "\"Obstacles_Night/run.sumo.cfg\""
param *.withObstacles true
param *.obstacles.obstacles "xmldoc(\"config_obstacles.xml\", \"//AnalogueModel[@type='SimpleObstacleShadowing']/obstacles\")"
param *.node[*].nic.mac1609_4.txPower 20mW
param *.node[*].nic.phy80211p.decider "xmldoc(\"config_obstacles.xml\")"
param *.node[*].nic.phy80211p.analogueModels "xmldoc(\"config_obstacles.xml\")"
param *.node[*].applType "\"artery.veins.ApplicationLayer\""
param *.node[*].appl.middleware.updateInterval 0.1s
param *.node[*].appl.middleware.datetime "\"2013-06-01 12:35:00\""
param *.node[*].appl.middleware.services "xmldoc(\"services.xml\")"
param *.node[*].appl.middleware.ExampleService.DecisionLogic 80
param *.node[*].appl.middleware.ExampleService.NeighboringWindow 60
param *.traci.core.version -1
param *.traci.launcher.typename "\"PosixLauncher\""
param *.playgroundSizeX 4000m
param *.playgroundSizeY 4000m
param *.playgroundSizeZ 50m
param *.connectionManager.maxInterfDist 1500m
param *.connectionManager.sendDirect true
param *.connectionManager.coreDebug false

scalar World.node[5].appl.middleware.CaService #cam_sent 158
scalar World.node[5].appl.middleware.ExampleService #full_proofs 0
scalar World.node[5].appl.middleware.ExampleService #half_proofs 0
scalar World.node[5].appl.middleware.ExampleService #failed_proofs 0
scalar World.node[5].appl.middleware.ExampleService #loc_proof_send 0
scalar World.node[5].nic.phy80211p busyTime 0.00016051063829787
scalar World.node[5].nic.mac1609_4 ReceivedUnicastPackets 0
scalar World.node[5].nic.mac1609_4 ReceivedBroadcasts 39
scalar World.node[5].nic.mac1609_4 SentPackets 158
scalar World.node[5].nic.mac1609_4 SentAcknowledgements 0
scalar World.node[5].nic.mac1609_4 SNIRLostPackets 7
scalar World.node[5].nic.mac1609_4 RXTXLostPackets 0
scalar World.node[5].nic.mac1609_4 TotalLostPackets 7
scalar World.node[5].nic.mac1609_4 DroppedPacketsInMac 0
scalar World.node[5].nic.mac1609_4 TooLittleTime 0
scalar World.node[5].nic.mac1609_4 TimesIntoBackoff 158
scalar World.node[5].nic.mac1609_4 SlotsBackoff 1189
scalar World.node[5].nic.mac1609_4 NumInternalContention 0
scalar World.node[5].nic.mac1609_4 totalBusyTime 0.033494
scalar World.node[3].appl.middleware.CaService #cam_sent 310
scalar World.node[3].appl.middleware.ExampleService #full_proofs 0
scalar World.node[3].appl.middleware.ExampleService #half_proofs 0
scalar World.node[3].appl.middleware.ExampleService #failed_proofs 0
scalar World.node[3].appl.middleware.ExampleService #loc_proof_send 1
scalar World.node[3].nic.phy80211p busyTime 0.000333696
scalar World.node[3].nic.mac1609_4 ReceivedUnicastPackets 0
scalar World.node[3].nic.mac1609_4 ReceivedBroadcasts 249
scalar World.node[3].nic.mac1609_4 SentPackets 311
scalar World.node[3].nic.mac1609_4 SentAcknowledgements 0
scalar World.node[3].nic.mac1609_4 SNIRLostPackets 7
scalar World.node[3].nic.mac1609_4 RXTXLostPackets 0
scalar World.node[3].nic.mac1609_4 TotalLostPackets 7
scalar World.node[3].nic.mac1609_4 DroppedPacketsInMac 0
scalar World.node[3].nic.mac1609_4 TooLittleTime 0
scalar World.node[3].nic.mac1609_4 TimesIntoBackoff 311
scalar World.node[3].nic.mac1609_4 SlotsBackoff 2317
scalar World.node[3].nic.mac1609_4 NumInternalContention 0
scalar World.node[3].nic.mac1609_4 totalBusyTime 0.092943
scalar World.node[4].appl.middleware.CaService #cam_sent 355
scalar World.node[4].appl.middleware.ExampleService #full_proofs 2
scalar World.node[4].appl.middleware.ExampleService #half_proofs 0
scalar World.node[4].appl.middleware.ExampleService #failed_proofs 0
scalar World.node[4].appl.middleware.ExampleService #loc_proof_send 4
scalar World.node[4].nic.phy80211p busyTime 0.00069820689655172
scalar World.node[4].nic.mac1609_4 ReceivedUnicastPackets 0
scalar World.node[4].nic.mac1609_4 ReceivedBroadcasts 477
scalar World.node[4].nic.mac1609_4 SentPackets 359
scalar World.node[4].nic.mac1609_4 SentAcknowledgements 0
scalar World.node[4].nic.mac1609_4 SNIRLostPackets 21
scalar World.node[4].nic.mac1609_4 RXTXLostPackets 0
scalar World.node[4].nic.mac1609_4 TotalLostPackets 21
scalar World.node[4].nic.mac1609_4 DroppedPacketsInMac 0
scalar World.node[4].nic.mac1609_4 TooLittleTime 0
scalar World.node[4].nic.mac1609_4 TimesIntoBackoff 361
scalar World.node[4].nic.mac1609_4 SlotsBackoff 2635
scalar World.node[4].nic.mac1609_4 NumInternalContention 0
scalar World.node[4].nic.mac1609_4 totalBusyTime 0.139775
scalar World.node[7].appl.middleware.CaService #cam_sent 268
scalar World.node[7].appl.middleware.ExampleService #full_proofs 0
scalar World.node[7].appl.middleware.ExampleService #half_proofs 0
scalar World.node[7].appl.middleware.ExampleService #failed_proofs 0
scalar World.node[7].appl.middleware.ExampleService #loc_proof_send 1
scalar World.node[7].nic.phy80211p busyTime 0.00048292682926829
scalar World.node[7].nic.mac1609_4 ReceivedUnicastPackets 0
scalar World.node[7].nic.mac1609_4 ReceivedBroadcasts 221
scalar World.node[7].nic.mac1609_4 SentPackets 269
scalar World.node[7].nic.mac1609_4 SentAcknowledgements 0
scalar World.node[7].nic.mac1609_4 SNIRLostPackets 22
scalar World.node[7].nic.mac1609_4 RXTXLostPackets 0
scalar World.node[7].nic.mac1609_4 TotalLostPackets 22
scalar World.node[7].nic.mac1609_4 DroppedPacketsInMac 0
scalar World.node[7].nic.mac1609_4 TooLittleTime 0
scalar World.node[7].nic.mac1609_4 TimesIntoBackoff 269
scalar World.node[7].nic.mac1609_4 SlotsBackoff 1995
scalar World.node[7].nic.mac1609_4 NumInternalContention 0
scalar World.node[7].nic.mac1609_4 totalBusyTime 0.083525
scalar World.node[1].appl.middleware.CaService #cam_sent 547
scalar World.node[1].appl.middleware.ExampleService #full_proofs 1
scalar World.node[1].appl.middleware.ExampleService #half_proofs 1
scalar World.node[1].appl.middleware.ExampleService #failed_proofs 0
scalar World.node[1].appl.middleware.ExampleService #loc_proof_send 6
scalar World.node[1].nic.phy80211p busyTime 0.0007321304347826
scalar World.node[1].nic.mac1609_4 ReceivedUnicastPackets 0
scalar World.node[1].nic.mac1609_4 ReceivedBroadcasts 782
scalar World.node[1].nic.mac1609_4 SentPackets 553
scalar World.node[1].nic.mac1609_4 SentAcknowledgements 0
scalar World.node[1].nic.mac1609_4 SNIRLostPackets 45
scalar World.node[1].nic.mac1609_4 RXTXLostPackets 2
scalar World.node[1].nic.mac1609_4 TotalLostPackets 47
scalar World.node[1].nic.mac1609_4 DroppedPacketsInMac 0
scalar World.node[1].nic.mac1609_4 TooLittleTime 0
scalar World.node[1].nic.mac1609_4 TimesIntoBackoff 553
scalar World.node[1].nic.mac1609_4 SlotsBackoff 4198
scalar World.node[1].nic.mac1609_4 NumInternalContention 0
scalar World.node[1].nic.mac1609_4 totalBusyTime 0.224993
scalar World.node[2].appl.middleware.CaService #cam_sent 581
scalar World.node[2].appl.middleware.ExampleService #full_proofs 0
scalar World.node[2].appl.middleware.ExampleService #half_proofs 2
scalar World.node[2].appl.middleware.ExampleService #failed_proofs 0
scalar World.node[2].appl.middleware.ExampleService #loc_proof_send 7
scalar World.node[2].nic.phy80211p busyTime 0.0007457614678899
scalar World.node[2].nic.mac1609_4 ReceivedUnicastPackets 0
scalar World.node[2].nic.mac1609_4 ReceivedBroadcasts 947
scalar World.node[2].nic.mac1609_4 SentPackets 588
scalar World.node[2].nic.mac1609_4 SentAcknowledgements 0
scalar World.node[2].nic.mac1609_4 SNIRLostPackets 48
scalar World.node[2].nic.mac1609_4 RXTXLostPackets 5
scalar World.node[2].nic.mac1609_4 TotalLostPackets 53
scalar World.node[2].nic.mac1609_4 DroppedPacketsInMac 0
scalar World.node[2].nic.mac1609_4 TooLittleTime 0
scalar World.node[2].nic.mac1609_4 TimesIntoBackoff 588
scalar World.node[2].nic.mac1609_4 SlotsBackoff 4348
scalar World.node[2].nic.mac1609_4 NumInternalContention 0
scalar World.node[2].nic.mac1609_4 totalBusyTime 0.258340147672
scalar World.node[6].appl.middleware.CaService #cam_sent 419
scalar World.node[6].appl.middleware.ExampleService #full_proofs 1
scalar World.node[6].appl.middleware.ExampleService #half_proofs 0
scalar World.node[6].appl.middleware.ExampleService #failed_proofs 2
scalar World.node[6].appl.middleware.ExampleService #loc_proof_send 9
scalar World.node[6].nic.phy80211p busyTime 0.00089301149425287
scalar World.node[6].nic.mac1609_4 ReceivedUnicastPackets 0
scalar World.node[6].nic.mac1609_4 ReceivedBroadcasts 891
scalar World.node[6].nic.mac1609_4 SentPackets 428
scalar World.node[6].nic.mac1609_4 SentAcknowledgements 0
scalar World.node[6].nic.mac1609_4 SNIRLostPackets 61
scalar World.node[6].nic.mac1609_4 RXTXLostPackets 8
scalar World.node[6].nic.mac1609_4 TotalLostPackets 69
scalar World.node[6].nic.mac1609_4 DroppedPacketsInMac 0
scalar World.node[6].nic.mac1609_4 TooLittleTime 0
scalar World.node[6].nic.mac1609_4 TimesIntoBackoff 430
scalar World.node[6].nic.mac1609_4 SlotsBackoff 3184
scalar World.node[6].nic.mac1609_4 NumInternalContention 0
scalar World.node[6].nic.mac1609_4 totalBusyTime 0.225252
scalar World.node[0].appl.middleware.CaService #cam_sent 632
scalar World.node[0].appl.middleware.ExampleService #full_proofs 1
scalar World.node[0].appl.middleware.ExampleService #half_proofs 0
scalar World.node[0].appl.middleware.ExampleService #failed_proofs 0
scalar World.node[0].appl.middleware.ExampleService #loc_proof_send 4
scalar World.node[0].nic.phy80211p busyTime 0.00035219123505976
scalar World.node[0].nic.mac1609_4 ReceivedUnicastPackets 0
scalar World.node[0].nic.mac1609_4 ReceivedBroadcasts 457
scalar World.node[0].nic.mac1609_4 SentPackets 636
scalar World.node[0].nic.mac1609_4 SentAcknowledgements 0
scalar World.node[0].nic.mac1609_4 SNIRLostPackets 83
scalar World.node[0].nic.mac1609_4 RXTXLostPackets 3
scalar World.node[0].nic.mac1609_4 TotalLostPackets 86
scalar World.node[0].nic.mac1609_4 DroppedPacketsInMac 0
scalar World.node[0].nic.mac1609_4 TooLittleTime 0
scalar World.node[0].nic.mac1609_4 TimesIntoBackoff 636
scalar World.node[0].nic.mac1609_4 SlotsBackoff 4878
scalar World.node[0].nic.mac1609_4 NumInternalContention 0
scalar World.node[0].nic.mac1609_4 totalBusyTime 0.192916
scalar World.node[13].appl.middleware.CaService #cam_sent 164
scalar World.node[13].appl.middleware.ExampleService #full_proofs 0
scalar World.node[13].appl.middleware.ExampleService #half_proofs 0
scalar World.node[13].appl.middleware.ExampleService #failed_proofs 0
scalar World.node[13].appl.middleware.ExampleService #loc_proof_send 0
scalar World.node[13].nic.phy80211p busyTime 0.00035608163265306
scalar World.node[13].nic.mac1609_4 ReceivedUnicastPackets 0
scalar World.node[13].nic.mac1609_4 ReceivedBroadcasts 104
scalar World.node[13].nic.mac1609_4 SentPackets 164
scalar World.node[13].nic.mac1609_4 SentAcknowledgements 0
scalar World.node[13].nic.mac1609_4 SNIRLostPackets 3
scalar World.node[13].nic.mac1609_4 RXTXLostPackets 0
scalar World.node[13].nic.mac1609_4 TotalLostPackets 3
scalar World.node[13].nic.mac1609_4 DroppedPacketsInMac 0
scalar World.node[13].nic.mac1609_4 TooLittleTime 0
scalar World.node[13].nic.mac1609_4 TimesIntoBackoff 164
scalar World.node[13].nic.mac1609_4 SlotsBackoff 1278
scalar World.node[13].nic.mac1609_4 NumInternalContention 0
scalar World.node[13].nic.mac1609_4 totalBusyTime 0.04438
scalar World.node[14].appl.middleware.CaService #cam_sent 168
scalar World.node[14].appl.middleware.ExampleService #full_proofs 0
scalar World.node[14].appl.middleware.ExampleService #half_proofs 0
scalar World.node[14].appl.middleware.ExampleService #failed_proofs 0
scalar World.node[14].appl.middleware.ExampleService #loc_proof_send 0
scalar World.node[14].nic.phy80211p busyTime 0.00071616
scalar World.node[14].nic.mac1609_4 ReceivedUnicastPackets 0
scalar World.node[14].nic.mac1609_4 ReceivedBroadcasts 178
scalar World.node[14].nic.mac1609_4 SentPackets 168
scalar World.node[14].nic.mac1609_4 SentAcknowledgements 0
scalar World.node[14].nic.mac1609_4 SNIRLostPackets 41
scalar World.node[14].nic.mac1609_4 RXTXLostPackets 0
scalar World.node[14].nic.mac1609_4 TotalLostPackets 41
scalar World.node[14].nic.mac1609_4 DroppedPacketsInMac 0
scalar World.node[14].nic.mac1609_4 TooLittleTime 0
scalar World.node[14].nic.mac1609_4 TimesIntoBackoff 168
scalar World.node[14].nic.mac1609_4 SlotsBackoff 1326
scalar World.node[14].nic.mac1609_4 NumInternalContention 0
scalar World.node[14].nic.mac1609_4 totalBusyTime 0.0634
scalar World.node[8].appl.middleware.CaService #cam_sent 482
scalar World.node[8].appl.middleware.ExampleService #full_proofs 1
scalar World.node[8].appl.middleware.ExampleService #half_proofs 0
scalar World.node[8].appl.middleware.ExampleService #failed_proofs 1
scalar World.node[8].appl.middleware.ExampleService #loc_proof_send 7
scalar World.node[8].nic.phy80211p busyTime 0.00082936312849161
scalar World.node[8].nic.mac1609_4 ReceivedUnicastPackets 0
scalar World.node[8].nic.mac1609_4 ReceivedBroadcasts 825
scalar World.node[8].nic.mac1609_4 SentPackets 489
scalar World.node[8].nic.mac1609_4 SentAcknowledgements 0
scalar World.node[8].nic.mac1609_4 SNIRLostPackets 83
scalar World.node[8].nic.mac1609_4 RXTXLostPackets 8
scalar World.node[8].nic.mac1609_4 TotalLostPackets 91
scalar World.node[8].nic.mac1609_4 DroppedPacketsInMac 0
scalar World.node[8].nic.mac1609_4 TooLittleTime 0
scalar World.node[8].nic.mac1609_4 TimesIntoBackoff 489
scalar World.node[8].nic.mac1609_4 SlotsBackoff 3842
scalar World.node[8].nic.mac1609_4 NumInternalContention 0
scalar World.node[8].nic.mac1609_4 totalBusyTime 0.228193064788
scalar World.node[17].appl.middleware.CaService #cam_sent 118
scalar World.node[17].appl.middleware.ExampleService #full_proofs 1
scalar World.node[17].appl.middleware.ExampleService #half_proofs 0
scalar World.node[17].appl.middleware.ExampleService #failed_proofs 0
scalar World.node[17].appl.middleware.ExampleService #loc_proof_send 1
scalar World.node[17].nic.phy80211p busyTime 0.00096
scalar World.node[17].nic.mac1609_4 ReceivedUnicastPackets 0
scalar World.node[17].nic.mac1609_4 ReceivedBroadcasts 208
scalar World.node[17].nic.mac1609_4 SentPackets 119
scalar World.node[17].nic.mac1609_4 SentAcknowledgements 0
scalar World.node[17].nic.mac1609_4 SNIRLostPackets 40
scalar World.node[17].nic.mac1609_4 RXTXLostPackets 0
scalar World.node[17].nic.mac1609_4 TotalLostPackets 40
scalar World.node[17].nic.mac1609_4 DroppedPacketsInMac 0
scalar World.node[17].nic.mac1609_4 TooLittleTime 0
scalar World.node[17].nic.mac1609_4 TimesIntoBackoff 119
scalar World.node[17].nic.mac1609_4 SlotsBackoff 937
scalar World.node[17].nic.mac1609_4 NumInternalContention 0
scalar World.node[17].nic.mac1609_4 totalBusyTime 0.059855
scalar World.node[10].appl.middleware.CaService #cam_sent 483
scalar World.node[10].appl.middleware.ExampleService #full_proofs 0
scalar World.node[10].appl.middleware.ExampleService #half_proofs 0
scalar World.node[10].appl.middleware.ExampleService #failed_proofs 0
scalar World.node[10].appl.middleware.ExampleService #loc_proof_send 5
scalar World.node[10].nic.phy80211p busyTime 0.0005718024691358
scalar World.node[10].nic.mac1609_4 ReceivedUnicastPackets 0
scalar World.node[10].nic.mac1609_4 ReceivedBroadcasts 480
scalar World.node[10].nic.mac1609_4 SentPackets 488
scalar World.node[10].nic.mac1609_4 SentAcknowledgements 0
scalar World.node[10].nic.mac1609_4 SNIRLostPackets 85
scalar World.node[10].nic.mac1609_4 RXTXLostPackets 8
scalar World.node[10].nic.mac1609_4 TotalLostPackets 93
scalar World.node[10].nic.mac1609_4 DroppedPacketsInMac 0
scalar World.node[10].nic.mac1609_4 TooLittleTime 0
scalar World.node[10].nic.mac1609_4 TimesIntoBackoff 488
scalar World.node[10].nic.mac1609_4 SlotsBackoff 3876
scalar World.node[10].nic.mac1609_4 NumInternalContention 0
scalar World.node[10].nic.mac1609_4 totalBusyTime 0.172488
scalar World.node[12].appl.middleware.CaService #cam_sent 453
scalar World.node[12].appl.middleware.ExampleService #full_proofs 1
scalar World.node[12].appl.middleware.ExampleService #half_proofs 0
scalar World.node[12].appl.middleware.ExampleService #failed_proofs 0
scalar World.node[12].appl.middleware.ExampleService #loc_proof_send 2
scalar World.node[12].nic.phy80211p busyTime 0.0003919509202454
scalar World.node[12].nic.mac1609_4 ReceivedUnicastPackets 0
scalar World.node[12].nic.mac1609_4 ReceivedBroadcasts 363
scalar World.node[12].nic.mac1609_4 SentPackets 455
scalar World.node[12].nic.mac1609_4 SentAcknowledgements 0
scalar World.node[12].nic.mac1609_4 SNIRLostPackets 29
scalar World.node[12].nic.mac1609_4 RXTXLostPackets 0
scalar World.node[12].nic.mac1609_4 TotalLostPackets 29
scalar World.node[12].nic.mac1609_4 DroppedPacketsInMac 0
scalar World.node[12].nic.mac1609_4 TooLittleTime 0
scalar World.node[12].nic.mac1609_4 TimesIntoBackoff 455
scalar World.node[12].nic.mac1609_4 SlotsBackoff 3510
scalar World.node[12].nic.mac1609_4 NumInternalContention 0
scalar World.node[12].nic.mac1609_4 totalBusyTime 0.138671
scalar World.node[15].appl.middleware.CaService #cam_sent 394
scalar World.node[15].appl.middleware.ExampleService #full_proofs 2
scalar World.node[15].appl.middleware.ExampleService #half_proofs 0
scalar World.node[15].appl.middleware.ExampleService #failed_proofs 0
scalar World.node[15].appl.middleware.ExampleService #loc_proof_send 4
scalar World.node[15].nic.phy80211p busyTime 0.00075125423728813
scalar World.node[15].nic.mac1609_4 ReceivedUnicastPackets 0
scalar World.node[15].nic.mac1609_4 ReceivedBroadcasts 522
scalar World.node[15].nic.mac1609_4 SentPackets 398
scalar World.node[15].nic.mac1609_4 SentAcknowledgements 0
scalar World.node[15].nic.mac1609_4 SNIRLostPackets 22
scalar World.node[15].nic.mac1609_4 RXTXLostPackets 1
scalar World.node[15].nic.mac1609_4 TotalLostPackets 23
scalar World.node[15].nic.mac1609_4 DroppedPacketsInMac 0
scalar World.node[15].nic.mac1609_4 TooLittleTime 0
scalar World.node[15].nic.mac1609_4 TimesIntoBackoff 399
scalar World.node[15].nic.mac1609_4 SlotsBackoff 2799
scalar World.node[15].nic.mac1609_4 NumInternalContention 0
scalar World.node[15].nic.mac1609_4 totalBusyTime 0.153766
scalar World.node[9].appl.middleware.CaService #cam_sent 711
scalar World.node[9].appl.middleware.ExampleService #full_proofs 1
scalar World.node[9].appl.middleware.ExampleService #half_proofs 1
scalar World.node[9].appl.middleware.ExampleService #failed_proofs 0
scalar World.node[9].appl.middleware.ExampleService #loc_proof_send 9
scalar World.node[9].nic.phy80211p busyTime 0.00079801418439716
scalar World.node[9].nic.mac1609_4 ReceivedUnicastPackets 0
scalar World.node[9].nic.mac1609_4 ReceivedBroadcasts 1318
scalar World.node[9].nic.mac1609_4 SentPackets 720
scalar World.node[9].nic.mac1609_4 SentAcknowledgements 0
scalar World.node[9].nic.mac1609_4 SNIRLostPackets 60
scalar World.node[9].nic.mac1609_4 RXTXLostPackets 9
scalar World.node[9].nic.mac1609_4 TotalLostPackets 69
scalar World.node[9].nic.mac1609_4 DroppedPacketsInMac 0
scalar World.node[9].nic.mac1609_4 TooLittleTime 0
scalar World.node[9].nic.mac1609_4 TimesIntoBackoff 721
scalar World.node[9].nic.mac1609_4 SlotsBackoff 5202
scalar World.node[9].nic.mac1609_4 NumInternalContention 0
scalar World.node[9].nic.mac1609_4 totalBusyTime 0.342624102117
scalar World.node[23].appl.middleware.CaService #cam_sent 102
scalar World.node[23].appl.middleware.ExampleService #full_proofs 0
scalar World.node[23].appl.middleware.ExampleService #half_proofs 0
scalar World.node[23].appl.middleware.ExampleService #failed_proofs 0
scalar World.node[23].appl.middleware.ExampleService #loc_proof_send 0
scalar World.node[23].nic.phy80211p busyTime 0.00050586666666667
scalar World.node[23].nic.mac1609_4 ReceivedUnicastPackets 0
scalar World.node[23].nic.mac1609_4 ReceivedBroadcasts 92
scalar World.node[23].nic.mac1609_4 SentPackets 102
scalar World.node[23].nic.mac1609_4 SentAcknowledgements 0
scalar World.node[23].nic.mac1609_4 SNIRLostPackets 1
scalar World.node[23].nic.mac1609_4 RXTXLostPackets 0
scalar World.node[23].nic.mac1609_4 TotalLostPackets 1
scalar World.node[23].nic.mac1609_4 DroppedPacketsInMac 0
scalar World.node[23].nic.mac1609_4 TooLittleTime 0
scalar World.node[23].nic.mac1609_4 TimesIntoBackoff 102
scalar World.node[23].nic.mac1609_4 SlotsBackoff 845
scalar World.node[23].nic.mac1609_4 NumInternalContention 0
scalar World.node[23].nic.mac1609_4 totalBusyTime 0.031918
scalar World.node[20].appl.middleware.CaService #cam_sent 318
scalar World.node[20].appl.middleware.ExampleService #full_proofs 0
scalar World.node[20].appl.middleware.ExampleService #half_proofs 1
scalar World.node[20].appl.middleware.ExampleService #failed_proofs 0
scalar World.node[20].appl.middleware.ExampleService #loc_proof_send 1
scalar World.node[20].nic.phy80211p busyTime 0.00032311578947369
scalar World.node[20].nic.mac1609_4 ReceivedUnicastPackets 0
scalar World.node[20].nic.mac1609_4 ReceivedBroadcasts 175
scalar World.node[20].nic.mac1609_4 SentPackets 319
scalar World.node[20].nic.mac1609_4 SentAcknowledgements 0
scalar World.node[20].nic.mac1609_4 SNIRLostPackets 13
scalar World.node[20].nic.mac1609_4 RXTXLostPackets 0
scalar World.node[20].nic.mac1609_4 TotalLostPackets 13
scalar World.node[20].nic.mac1609_4 DroppedPacketsInMac 0
scalar World.node[20].nic.mac1609_4 TooLittleTime 0
scalar World.node[20].nic.mac1609_4 TimesIntoBackoff 319
scalar World.node[20].nic.mac1609_4 SlotsBackoff 2397
scalar World.node[20].nic.mac1609_4 NumInternalContention 0
scalar World.node[20].nic.mac1609_4 totalBusyTime 0.082919
scalar World.node[19].appl.middleware.CaService #cam_sent 382
scalar World.node[19].appl.middleware.ExampleService #full_proofs 1
scalar World.node[19].appl.middleware.ExampleService #half_proofs 1
scalar World.node[19].appl.middleware.ExampleService #failed_proofs 0
scalar World.node[19].appl.middleware.ExampleService #loc_proof_send 5
scalar World.node[19].nic.phy80211p busyTime 0.00096617886178861
scalar World.node[19].nic.mac1609_4 ReceivedUnicastPackets 0
scalar World.node[19].nic.mac1609_4 ReceivedBroadcasts 698
scalar World.node[19].nic.mac1609_4 SentPackets 387
scalar World.node[19].nic.mac1609_4 SentAcknowledgements 0
scalar World.node[19].nic.mac1609_4 SNIRLostPackets 32
scalar World.node[19].nic.mac1609_4 RXTXLostPackets 2
scalar World.node[19].nic.mac1609_4 TotalLostPackets 34
scalar World.node[19].nic.mac1609_4 DroppedPacketsInMac 0
scalar World.node[19].nic.mac1609_4 TooLittleTime 0
scalar World.node[19].nic.mac1609_4 TimesIntoBackoff 387
scalar World.node[19].nic.mac1609_4 SlotsBackoff 2895
scalar World.node[19].nic.mac1609_4 NumInternalContention 0
scalar World.node[19].nic.mac1609_4 totalBusyTime 0.182043052676
scalar World.node[18].appl.middleware.CaService #cam_sent 514
scalar World.node[18].appl.middleware.ExampleService #full_proofs 2
scalar World.node[18].appl.middleware.ExampleService #half_proofs 1
scalar World.node[18].appl.middleware.ExampleService #failed_proofs 0
scalar World.node[18].appl.middleware.ExampleService #loc_proof_send 7
scalar World.node[18].nic.phy80211p busyTime 0.00074357396449704
scalar World.node[18].nic.mac1609_4 ReceivedUnicastPackets 0
scalar World.node[18].nic.mac1609_4 ReceivedBroadcasts 719
scalar World.node[18].nic.mac1609_4 SentPackets 521
scalar World.node[18].nic.mac1609_4 SentAcknowledgements 0
scalar World.node[18].nic.mac1609_4 SNIRLostPackets 51
scalar World.node[18].nic.mac1609_4 RXTXLostPackets 2
scalar World.node[18].nic.mac1609_4 TotalLostPackets 53
scalar World.node[18].nic.mac1609_4 DroppedPacketsInMac 0
scalar World.node[18].nic.mac1609_4 TooLittleTime 0
scalar World.node[18].nic.mac1609_4 TimesIntoBackoff 521
scalar World.node[18].nic.mac1609_4 SlotsBackoff 3915
scalar World.node[18].nic.mac1609_4 NumInternalContention 0
scalar World.node[18].nic.mac1609_4 totalBusyTime 0.210897
scalar World.node[16].appl.middleware.CaService #cam_sent 502
scalar World.node[16].appl.middleware.ExampleService #full_proofs 3
scalar World.node[16].appl.middleware.ExampleService #half_proofs 0
scalar World.node[16].appl.middleware.ExampleService #failed_proofs 0
scalar World.node[16].appl.middleware.ExampleService #loc_proof_send 10
scalar World.node[16].nic.phy80211p busyTime 0.00074805797101449
scalar World.node[16].nic.mac1609_4 ReceivedUnicastPackets 0
scalar World.node[16].nic.mac1609_4 ReceivedBroadcasts 902
scalar World.node[16].nic.mac1609_4 SentPackets 512
scalar World.node[16].nic.mac1609_4 SentAcknowledgements 0
scalar World.node[16].nic.mac1609_4 SNIRLostPackets 50
scalar World.node[16].nic.mac1609_4 RXTXLostPackets 1
scalar World.node[16].nic.mac1609_4 TotalLostPackets 51
scalar World.node[16].nic.mac1609_4 DroppedPacketsInMac 0
scalar World.node[16].nic.mac1609_4 TooLittleTime 0
scalar World.node[16].nic.mac1609_4 TimesIntoBackoff 515
scalar World.node[16].nic.mac1609_4 SlotsBackoff 4072
scalar World.node[16].nic.mac1609_4 NumInternalContention 0
scalar World.node[16].nic.mac1609_4 totalBusyTime 0.23872
scalar World.node[11].appl.middleware.CaService #cam_sent 905
scalar World.node[11].appl.middleware.ExampleService #full_proofs 1
scalar World.node[11].appl.middleware.ExampleService #half_proofs 2
scalar World.node[11].appl.middleware.ExampleService #failed_proofs 1
scalar World.node[11].appl.middleware.ExampleService #loc_proof_send 9
scalar World.node[11].nic.phy80211p busyTime 0.00057952186588921
scalar World.node[11].nic.mac1609_4 ReceivedUnicastPackets 0
scalar World.node[11].nic.mac1609_4 ReceivedBroadcasts 1126
scalar World.node[11].nic.mac1609_4 SentPackets 914
scalar World.node[11].nic.mac1609_4 SentAcknowledgements 0
scalar World.node[11].nic.mac1609_4 SNIRLostPackets 93
scalar World.node[11].nic.mac1609_4 RXTXLostPackets 1
scalar World.node[11].nic.mac1609_4 TotalLostPackets 94
scalar World.node[11].nic.mac1609_4 DroppedPacketsInMac 0
scalar World.node[11].nic.mac1609_4 TooLittleTime 0
scalar World.node[11].nic.mac1609_4 TimesIntoBackoff 915
scalar World.node[11].nic.mac1609_4 SlotsBackoff 7236
scalar World.node[11].nic.mac1609_4 NumInternalContention 0
scalar World.node[11].nic.mac1609_4 totalBusyTime 0.347986025349
scalar World.node[26].appl.middleware.CaService #cam_sent 268
scalar World.node[26].appl.middleware.ExampleService #full_proofs 0
scalar World.node[26].appl.middleware.ExampleService #half_proofs 1
scalar World.node[26].appl.middleware.ExampleService #failed_proofs 0
scalar World.node[26].appl.middleware.ExampleService #loc_proof_send 3
scalar World.node[26].nic.phy80211p busyTime 0.001224183908046
scalar World.node[26].nic.mac1609_4 ReceivedUnicastPackets 0
scalar World.node[26].nic.mac1609_4 ReceivedBroadcasts 610
scalar World.node[26].nic.mac1609_4 SentPackets 271
scalar World.node[26].nic.mac1609_4 SentAcknowledgements 0
scalar World.node[26].nic.mac1609_4 SNIRLostPackets 43
scalar World.node[26].nic.mac1609_4 RXTXLostPackets 2
scalar World.node[26].nic.mac1609_4 TotalLostPackets 45
scalar World.node[26].nic.mac1609_4 DroppedPacketsInMac 0
scalar World.node[26].nic.mac1609_4 TooLittleTime 0
scalar World.node[26].nic.mac1609_4 TimesIntoBackoff 271
scalar World.node[26].nic.mac1609_4 SlotsBackoff 2025
scalar World.node[26].nic.mac1609_4 NumInternalContention 0
scalar World.node[26].nic.mac1609_4 totalBusyTime 0.150775
scalar World.node[22].appl.middleware.CaService #cam_sent 522
scalar World.node[22].appl.middleware.ExampleService #full_proofs 0
scalar World.node[22].appl.middleware.ExampleService #half_proofs 1
scalar World.node[22].appl.middleware.ExampleService #failed_proofs 1
scalar World.node[22].appl.middleware.ExampleService #loc_proof_send 6
scalar World.node[22].nic.phy80211p busyTime 0.0009377877094972
scalar World.node[22].nic.mac1609_4 ReceivedUnicastPackets 0
scalar World.node[22].nic.mac1609_4 ReceivedBroadcasts 980
scalar World.node[22].nic.mac1609_4 SentPackets 528
scalar World.node[22].nic.mac1609_4 SentAcknowledgements 0
scalar World.node[22].nic.mac1609_4 SNIRLostPackets 51
scalar World.node[22].nic.mac1609_4 RXTXLostPackets 5
scalar World.node[22].nic.mac1609_4 TotalLostPackets 56
scalar World.node[22].nic.mac1609_4 DroppedPacketsInMac 0
scalar World.node[22].nic.mac1609_4 TooLittleTime 0
scalar World.node[22].nic.mac1609_4 TimesIntoBackoff 529
scalar World.node[22].nic.mac1609_4 SlotsBackoff 3996
scalar World.node[22].nic.mac1609_4 NumInternalContention 0
scalar World.node[22].nic.mac1609_4 totalBusyTime 0.253888
scalar World.node[24].appl.middleware.CaService #cam_sent 551
scalar World.node[24].appl.middleware.ExampleService #full_proofs 2
scalar World.node[24].appl.middleware.ExampleService #half_proofs 0
scalar World.node[24].appl.middleware.ExampleService #failed_proofs 0
scalar World.node[24].appl.middleware.ExampleService #loc_proof_send 6
scalar World.node[24].nic.phy80211p busyTime 0.00074464367816091
scalar World.node[24].nic.mac1609_4 ReceivedUnicastPackets 0
scalar World.node[24].nic.mac1609_4 ReceivedBroadcasts 738
scalar World.node[24].nic.mac1609_4 SentPackets 557
scalar World.node[24].nic.mac1609_4 SentAcknowledgements 0
scalar World.node[24].nic.mac1609_4 SNIRLostPackets 57
scalar World.node[24].nic.mac1609_4 RXTXLostPackets 3
scalar World.node[24].nic.mac1609_4 TotalLostPackets 60
scalar World.node[24].nic.mac1609_4 DroppedPacketsInMac 0
scalar World.node[24].nic.mac1609_4 TooLittleTime 0
scalar World.node[24].nic.mac1609_4 TimesIntoBackoff 558
scalar World.node[24].nic.mac1609_4 SlotsBackoff 4178
scalar World.node[24].nic.mac1609_4 NumInternalContention 0
scalar World.node[24].nic.mac1609_4 totalBusyTime 0.220741
scalar World.node[21].appl.middleware.CaService #cam_sent 637
scalar World.node[21].appl.middleware.ExampleService #full_proofs 2
scalar World.node[21].appl.middleware.ExampleService #half_proofs 0
scalar World.node[21].appl.middleware.ExampleService #failed_proofs 1
scalar World.node[21].appl.middleware.ExampleService #loc_proof_send 9
scalar World.node[21].nic.phy80211p busyTime 0.0008467280334728
scalar World.node[21].nic.mac1609_4 ReceivedUnicastPackets 0
scalar World.node[21].nic.mac1609_4 ReceivedBroadcasts 1179
scalar World.node[21].nic.mac1609_4 SentPackets 646
scalar World.node[21].nic.mac1609_4 SentAcknowledgements 0
scalar World.node[21].nic.mac1609_4 SNIRLostPackets 63
scalar World.node[21].nic.mac1609_4 RXTXLostPackets 3
scalar World.node[21].nic.mac1609_4 TotalLostPackets 66
scalar World.node[21].nic.mac1609_4 DroppedPacketsInMac 0
scalar World.node[21].nic.mac1609_4 TooLittleTime 0
scalar World.node[21].nic.mac1609_4 TimesIntoBackoff 648
scalar World.node[21].nic.mac1609_4 SlotsBackoff 4977
scalar World.node[21].nic.mac1609_4 NumInternalContention 0
scalar World.node[21].nic.mac1609_4 totalBusyTime 0.308038130315
scalar World.node[25].appl.middleware.CaService #cam_sent 422
scalar World.node[25].appl.middleware.ExampleService #full_proofs 2
scalar World.node[25].appl.middleware.ExampleService #half_proofs 1
scalar World.node[25].appl.middleware.ExampleService #failed_proofs 0
scalar World.node[25].appl.middleware.ExampleService #loc_proof_send 7
scalar World.node[25].nic.phy80211p busyTime 0.00087949714285714
scalar World.node[25].nic.mac1609_4 ReceivedUnicastPackets 0
scalar World.node[25].nic.mac1609_4 ReceivedBroadcasts 915
scalar World.node[25].nic.mac1609_4 SentPackets 429
scalar World.node[25].nic.mac1609_4 SentAcknowledgements 0
scalar World.node[25].nic.mac1609_4 SNIRLostPackets 31
scalar World.node[25].nic.mac1609_4 RXTXLostPackets 1
scalar World.node[25].nic.mac1609_4 TotalLostPackets 32
scalar World.node[25].nic.mac1609_4 DroppedPacketsInMac 0
scalar World.node[25].nic.mac1609_4 TooLittleTime 0
scalar World.node[25].nic.mac1609_4 TimesIntoBackoff 429
scalar World.node[25].nic.mac1609_4 SlotsBackoff 3191
scalar World.node[25].nic.mac1609_4 NumInternalContention 0
scalar World.node[25].nic.mac1609_4 totalBusyTime 0.224165000002
scalar World.node[29].appl.middleware.CaService #cam_sent 486
scalar World.node[29].appl.middleware.ExampleService #full_proofs 1
scalar World.node[29].appl.middleware.ExampleService #half_proofs 0
scalar World.node[29].appl.middleware.ExampleService #failed_proofs 2
scalar World.node[29].appl.middleware.ExampleService #loc_proof_send 14
scalar World.node[29].nic.phy80211p busyTime 0.0012494769230769
scalar World.node[29].nic.mac1609_4 ReceivedUnicastPackets 0
scalar World.node[29].nic.mac1609_4 ReceivedBroadcasts 1449
scalar World.node[29].nic.mac1609_4 SentPackets 500
scalar World.node[29].nic.mac1609_4 SentAcknowledgements 0
scalar World.node[29].nic.mac1609_4 SNIRLostPackets 53
scalar World.node[29].nic.mac1609_4 RXTXLostPackets 24
scalar World.node[29].nic.mac1609_4 TotalLostPackets 77
scalar World.node[29].nic.mac1609_4 DroppedPacketsInMac 0
scalar World.node[29].nic.mac1609_4 TooLittleTime 0
scalar World.node[29].nic.mac1609_4 TimesIntoBackoff 503
scalar World.node[29].nic.mac1609_4 SlotsBackoff 3738
scalar World.node[29].nic.mac1609_4 NumInternalContention 0
scalar World.node[29].nic.mac1609_4 totalBusyTime 0.323124166737
scalar World.node[27].appl.middleware.CaService #cam_sent 594
scalar World.node[27].appl.middleware.ExampleService #full_proofs 1
scalar World.node[27].appl.middleware.ExampleService #half_proofs 2
scalar World.node[27].appl.middleware.ExampleService #failed_proofs 0
scalar World.node[27].appl.middleware.ExampleService #loc_proof_send 14
scalar World.node[27].nic.phy80211p busyTime 0.00098279497907949
scalar World.node[27].nic.mac1609_4 ReceivedUnicastPackets 0
scalar World.node[27].nic.mac1609_4 ReceivedBroadcasts 1378
scalar World.node[27].nic.mac1609_4 SentPackets 608
scalar World.node[27].nic.mac1609_4 SentAcknowledgements 0
scalar World.node[27].nic.mac1609_4 SNIRLostPackets 66
scalar World.node[27].nic.mac1609_4 RXTXLostPackets 13
scalar World.node[27].nic.mac1609_4 TotalLostPackets 79
scalar World.node[27].nic.mac1609_4 DroppedPacketsInMac 0
scalar World.node[27].nic.mac1609_4 TooLittleTime 0
scalar World.node[27].nic.mac1609_4 TimesIntoBackoff 608
scalar World.node[27].nic.mac1609_4 SlotsBackoff 4693
scalar World.node[27].nic.mac1609_4 NumInternalContention 0
scalar World.node[27].nic.mac1609_4 totalBusyTime 0.333688173158
scalar World.node[28].appl.middleware.CaService #cam_sent 609
scalar World.node[28].appl.middleware.ExampleService #full_proofs 1
scalar World.node[28].appl.middleware.ExampleService #half_proofs 2
scalar World.node[28].appl.middleware.ExampleService #failed_proofs 0
scalar World.node[28].appl.middleware.ExampleService #loc_proof_send 14
scalar World.node[28].nic.phy80211p busyTime 0.0013494260869565
scalar World.node[28].nic.mac1609_4 ReceivedUnicastPackets 0
scalar World.node[28].nic.mac1609_4 ReceivedBroadcasts 1863
scalar World.node[28].nic.mac1609_4 SentPackets 623
scalar World.node[28].nic.mac1609_4 SentAcknowledgements 0
scalar World.node[28].nic.mac1609_4 SNIRLostPackets 43
scalar World.node[28].nic.mac1609_4 RXTXLostPackets 30
scalar World.node[28].nic.mac1609_4 TotalLostPackets 73
scalar World.node[28].nic.mac1609_4 DroppedPacketsInMac 0
scalar World.node[28].nic.mac1609_4 TooLittleTime 0
scalar World.node[28].nic.mac1609_4 TimesIntoBackoff 626
scalar World.node[28].nic.mac1609_4 SlotsBackoff 4712
scalar World.node[28].nic.mac1609_4 NumInternalContention 0
scalar World.node[28].nic.mac1609_4 totalBusyTime 0.411111725847
scalar World.node[30].appl.middleware.CaService #cam_sent 595
scalar World.node[30].appl.middleware.ExampleService #full_proofs 1
scalar World.node[30].appl.middleware.ExampleService #half_proofs 3
scalar World.node[30].appl.middleware.ExampleService #failed_proofs 0
scalar World.node[30].appl.middleware.ExampleService #loc_proof_send 14
scalar World.node[30].nic.phy80211p busyTime 0.0011656752136752
scalar World.node[30].nic.mac1609_4 ReceivedUnicastPackets 0
scalar World.node[30].nic.mac1609_4 ReceivedBroadcasts 1620
scalar World.node[30].nic.mac1609_4 SentPackets 609
scalar World.node[30].nic.mac1609_4 SentAcknowledgements 0
scalar World.node[30].nic.mac1609_4 SNIRLostPackets 60
scalar World.node[30].nic.mac1609_4 RXTXLostPackets 11
scalar World.node[30].nic.mac1609_4 TotalLostPackets 71
scalar World.node[30].nic.mac1609_4 DroppedPacketsInMac 0
scalar World.node[30].nic.mac1609_4 TooLittleTime 0
scalar World.node[30].nic.mac1609_4 TimesIntoBackoff 609
scalar World.node[30].nic.mac1609_4 SlotsBackoff 4404
scalar World.node[30].nic.mac1609_4 NumInternalContention 0
scalar World.node[30].nic.mac1609_4 totalBusyTime 0.371129073551
scalar World.node[33].appl.middleware.CaService #cam_sent 543
scalar World.node[33].appl.middleware.ExampleService #full_proofs 0
scalar World.node[33].appl.middleware.ExampleService #half_proofs 3
scalar World.node[33].appl.middleware.ExampleService #failed_proofs 0
scalar World.node[33].appl.middleware.ExampleService #loc_proof_send 17
scalar World.node[33].nic.phy80211p busyTime 0.0013934545454545
scalar World.node[33].nic.mac1609_4 ReceivedUnicastPackets 0
scalar World.node[33].nic.mac1609_4 ReceivedBroadcasts 1613
scalar World.node[33].nic.mac1609_4 SentPackets 560
scalar World.node[33].nic.mac1609_4 SentAcknowledgements 0
scalar World.node[33].nic.mac1609_4 SNIRLostPackets 89
scalar World.node[33].nic.mac1609_4 RXTXLostPackets 24
scalar World.node[33].nic.mac1609_4 TotalLostPackets 113
scalar World.node[33].nic.mac1609_4 DroppedPacketsInMac 0
scalar World.node[33].nic.mac1609_4 TooLittleTime 0
scalar World.node[33].nic.mac1609_4 TimesIntoBackoff 561
scalar World.node[33].nic.mac1609_4 SlotsBackoff 4333
scalar World.node[33].nic.mac1609_4 NumInternalContention 0
scalar World.node[33].nic.mac1609_4 totalBusyTime 0.365680689567
scalar World.node[40].appl.middleware.CaService #cam_sent 262
scalar World.node[40].appl.middleware.ExampleService #full_proofs 0
scalar World.node[40].appl.middleware.ExampleService #half_proofs 2
scalar World.node[40].appl.middleware.ExampleService #failed_proofs 0
scalar World.node[40].appl.middleware.ExampleService #loc_proof_send 11
scalar World.node[40].nic.phy80211p busyTime 0.0015975384615384
scalar World.node[40].nic.mac1609_4 ReceivedUnicastPackets 0
scalar World.node[40].nic.mac1609_4 ReceivedBroadcasts 947
scalar World.node[40].nic.mac1609_4 SentPackets 273
scalar World.node[40].nic.mac1609_4 SentAcknowledgements 0
scalar World.node[40].nic.mac1609_4 SNIRLostPackets 79
scalar World.node[40].nic.mac1609_4 RXTXLostPackets 23
scalar World.node[40].nic.mac1609_4 TotalLostPackets 102
scalar World.node[40].nic.mac1609_4 DroppedPacketsInMac 0
scalar World.node[40].nic.mac1609_4 TooLittleTime 0
scalar World.node[40].nic.mac1609_4 TimesIntoBackoff 302
scalar World.node[40].nic.mac1609_4 SlotsBackoff 2265
scalar World.node[40].nic.mac1609_4 NumInternalContention 0
scalar World.node[40].nic.mac1609_4 totalBusyTime 0.207657
scalar World.node[41].appl.middleware.CaService #cam_sent 314
scalar World.node[41].appl.middleware.ExampleService #full_proofs 0
scalar World.node[41].appl.middleware.ExampleService #half_proofs 0
scalar World.node[41].appl.middleware.ExampleService #failed_proofs 1
scalar World.node[41].appl.middleware.ExampleService #loc_proof_send 4
scalar World.node[41].nic.phy80211p busyTime 0.00050127659574468
scalar World.node[41].nic.mac1609_4 ReceivedUnicastPackets 0
scalar World.node[41].nic.mac1609_4 ReceivedBroadcasts 272
scalar World.node[41].nic.mac1609_4 SentPackets 318
scalar World.node[41].nic.mac1609_4 SentAcknowledgements 0
scalar World.node[41].nic.mac1609_4 SNIRLostPackets 18
scalar World.node[41].nic.mac1609_4 RXTXLostPackets 2
scalar World.node[41].nic.mac1609_4 TotalLostPackets 20
scalar World.node[41].nic.mac1609_4 DroppedPacketsInMac 0
scalar World.node[41].nic.mac1609_4 TooLittleTime 0
scalar World.node[41].nic.mac1609_4 TimesIntoBackoff 319
scalar World.node[41].nic.mac1609_4 SlotsBackoff 2447
scalar World.node[41].nic.mac1609_4 NumInternalContention 0
scalar World.node[41].nic.mac1609_4 totalBusyTime 0.09879
scalar World.node[37].appl.middleware.CaService #cam_sent 362
scalar World.node[37].appl.middleware.ExampleService #full_proofs 1
scalar World.node[37].appl.middleware.ExampleService #half_proofs 2
scalar World.node[37].appl.middleware.ExampleService #failed_proofs 0
scalar World.node[37].appl.middleware.ExampleService #loc_proof_send 13
scalar World.node[37].nic.phy80211p busyTime 0.0017353846153846
scalar World.node[37].nic.mac1609_4 ReceivedUnicastPackets 0
scalar World.node[37].nic.mac1609_4 ReceivedBroadcasts 1467
scalar World.node[37].nic.mac1609_4 SentPackets 375
scalar World.node[37].nic.mac1609_4 SentAcknowledgements 0
scalar World.node[37].nic.mac1609_4 SNIRLostPackets 65
scalar World.node[37].nic.mac1609_4 RXTXLostPackets 30
scalar World.node[37].nic.mac1609_4 TotalLostPackets 95
scalar World.node[37].nic.mac1609_4 DroppedPacketsInMac 0
scalar World.node[37].nic.mac1609_4 TooLittleTime 0
scalar World.node[37].nic.mac1609_4 TimesIntoBackoff 375
scalar World.node[37].nic.mac1609_4 SlotsBackoff 2941
scalar World.node[37].nic.mac1609_4 NumInternalContention 0
scalar World.node[37].nic.mac1609_4 totalBusyTime 0.307359027839
scalar World.node[32].appl.middleware.CaService #cam_sent 536
scalar World.node[32].appl.middleware.ExampleService #full_proofs 0
scalar World.node[32].appl.middleware.ExampleService #half_proofs 2
scalar World.node[32].appl.middleware.ExampleService #failed_proofs 2
scalar World.node[32].appl.middleware.ExampleService #loc_proof_send 21
scalar World.node[32].nic.phy80211p busyTime 0.0019028202764977
scalar World.node[32].nic.mac1609_4 ReceivedUnicastPackets 0
scalar World.node[32].nic.mac1609_4 ReceivedBroadcasts 2443
scalar World.node[32].nic.mac1609_4 SentPackets 557
scalar World.node[32].nic.mac1609_4 SentAcknowledgements 0
scalar World.node[32].nic.mac1609_4 SNIRLostPackets 99
scalar World.node[32].nic.mac1609_4 RXTXLostPackets 48
scalar World.node[32].nic.mac1609_4 TotalLostPackets 147
scalar World.node[32].nic.mac1609_4 DroppedPacketsInMac 0
scalar World.node[32].nic.mac1609_4 TooLittleTime 0
scalar World.node[32].nic.mac1609_4 TimesIntoBackoff 558
scalar World.node[32].nic.mac1609_4 SlotsBackoff 4243
scalar World.node[32].nic.mac1609_4 NumInternalContention 0
scalar World.node[32].nic.mac1609_4 totalBusyTime 0.500693456328
scalar World.node[36].appl.middleware.CaService #cam_sent 411
scalar World.node[36].appl.middleware.ExampleService #full_proofs 0
scalar World.node[36].appl.middleware.ExampleService #half_proofs 1
scalar World.node[36].appl.middleware.ExampleService #failed_proofs 2
scalar World.node[36].appl.middleware.ExampleService #loc_proof_send 10
scalar World.node[36].nic.phy80211p busyTime 0.00095069879518072
scalar World.node[36].nic.mac1609_4 ReceivedUnicastPackets 0
scalar World.node[36].nic.mac1609_4 ReceivedBroadcasts 911
scalar World.node[36].nic.mac1609_4 SentPackets 421
scalar World.node[36].nic.mac1609_4 SentAcknowledgements 0
scalar World.node[36].nic.mac1609_4 SNIRLostPackets 61
scalar World.node[36].nic.mac1609_4 RXTXLostPackets 14
scalar World.node[36].nic.mac1609_4 TotalLostPackets 75
scalar World.node[36].nic.mac1609_4 DroppedPacketsInMac 0
scalar World.node[36].nic.mac1609_4 TooLittleTime 0
scalar World.node[36].nic.mac1609_4 TimesIntoBackoff 422
scalar World.node[36].nic.mac1609_4 SlotsBackoff 3162
scalar World.node[36].nic.mac1609_4 NumInternalContention 0
scalar World.node[36].nic.mac1609_4 totalBusyTime 0.225645076938
scalar World.node[48].appl.middleware.CaService #cam_sent 108
scalar World.node[48].appl.middleware.ExampleService #full_proofs 1
scalar World.node[48].appl.middleware.ExampleService #half_proofs 0
scalar World.node[48].appl.middleware.ExampleService #failed_proofs 0
scalar World.node[48].appl.middleware.ExampleService #loc_proof_send 2
scalar World.node[48].nic.phy80211p busyTime 0.00054925
scalar World.node[48].nic.mac1609_4 ReceivedUnicastPackets 0
scalar World.node[48].nic.mac1609_4 ReceivedBroadcasts 109
scalar World.node[48].nic.mac1609_4 SentPackets 110
scalar World.node[48].nic.mac1609_4 SentAcknowledgements 0
scalar World.node[48].nic.mac1609_4 SNIRLostPackets 0
scalar World.node[48].nic.mac1609_4 RXTXLostPackets 0
scalar World.node[48].nic.mac1609_4 TotalLostPackets 0
scalar World.node[48].nic.mac1609_4 DroppedPacketsInMac 0
scalar World.node[48].nic.mac1609_4 TooLittleTime 0
scalar World.node[48].nic.mac1609_4 TimesIntoBackoff 110
scalar World.node[48].nic.mac1609_4 SlotsBackoff 793
scalar World.node[48].nic.mac1609_4 NumInternalContention 0
scalar World.node[48].nic.mac1609_4 totalBusyTime 0.035526
scalar World.node[34].appl.middleware.CaService #cam_sent 569
scalar World.node[34].appl.middleware.ExampleService #full_proofs 1
scalar World.node[34].appl.middleware.ExampleService #half_proofs 2
scalar World.node[34].appl.middleware.ExampleService #failed_proofs 1
scalar World.node[34].appl.middleware.ExampleService #loc_proof_send 17
scalar World.node[34].nic.phy80211p busyTime 0.0015071304347826
scalar World.node[34].nic.mac1609_4 ReceivedUnicastPackets 0
scalar World.node[34].nic.mac1609_4 ReceivedBroadcasts 2051
scalar World.node[34].nic.mac1609_4 SentPackets 586
scalar World.node[34].nic.mac1609_4 SentAcknowledgements 0
scalar World.node[34].nic.mac1609_4 SNIRLostPackets 86
scalar World.node[34].nic.mac1609_4 RXTXLostPackets 16
scalar World.node[34].nic.mac1609_4 TotalLostPackets 102
scalar World.node[34].nic.mac1609_4 DroppedPacketsInMac 0
scalar World.node[34].nic.mac1609_4 TooLittleTime 0
scalar World.node[34].nic.mac1609_4 TimesIntoBackoff 587
scalar World.node[34].nic.mac1609_4 SlotsBackoff 4335
scalar World.node[34].nic.mac1609_4 NumInternalContention 0
scalar World.node[34].nic.mac1609_4 totalBusyTime 0.440170075619
scalar World.node[31].appl.middleware.CaService #cam_sent 591
scalar World.node[31].appl.middleware.ExampleService #full_proofs 1
scalar World.node[31].appl.middleware.ExampleService #half_proofs 3
scalar World.node[31].appl.middleware.ExampleService #failed_proofs 0
scalar World.node[31].appl.middleware.ExampleService #loc_proof_send 22
scalar World.node[31].nic.phy80211p busyTime 0.0020265168539326
scalar World.node[31].nic.mac1609_4 ReceivedUnicastPackets 0
scalar World.node[31].nic.mac1609_4 ReceivedBroadcasts 3165
scalar World.node[31].nic.mac1609_4 SentPackets 613
scalar World.node[31].nic.mac1609_4 SentAcknowledgements 0
scalar World.node[31].nic.mac1609_4 SNIRLostPackets 161
scalar World.node[31].nic.mac1609_4 RXTXLostPackets 54
scalar World.node[31].nic.mac1609_4 TotalLostPackets 215
scalar World.node[31].nic.mac1609_4 DroppedPacketsInMac 0
scalar World.node[31].nic.mac1609_4 TooLittleTime 0
scalar World.node[31].nic.mac1609_4 TimesIntoBackoff 613
scalar World.node[31].nic.mac1609_4 SlotsBackoff 4757
scalar World.node[31].nic.mac1609_4 NumInternalContention 0
scalar World.node[31].nic.mac1609_4 totalBusyTime 0.636405532131
scalar World.node[43].appl.middleware.CaService #cam_sent 277
scalar World.node[43].appl.middleware.ExampleService #full_proofs 0
scalar World.node[43].appl.middleware.ExampleService #half_proofs 1
scalar World.node[43].appl.middleware.ExampleService #failed_proofs 1
scalar World.node[43].appl.middleware.ExampleService #loc_proof_send 10
scalar World.node[43].nic.phy80211p busyTime 0.0015667256637168
scalar World.node[43].nic.mac1609_4 ReceivedUnicastPackets 0
scalar World.node[43].nic.mac1609_4 ReceivedBroadcasts 1006
scalar World.node[43].nic.mac1609_4 SentPackets 287
scalar World.node[43].nic.mac1609_4 SentAcknowledgements 0
scalar World.node[43].nic.mac1609_4 SNIRLostPackets 91
scalar World.node[43].nic.mac1609_4 RXTXLostPackets 11
scalar World.node[43].nic.mac1609_4 TotalLostPackets 102
scalar World.node[43].nic.mac1609_4 DroppedPacketsInMac 0
scalar World.node[43].nic.mac1609_4 TooLittleTime 0
scalar World.node[43].nic.mac1609_4 TimesIntoBackoff 287
scalar World.node[43].nic.mac1609_4 SlotsBackoff 2106
scalar World.node[43].nic.mac1609_4 NumInternalContention 0
scalar World.node[43].nic.mac1609_4 totalBusyTime 0.220911078186
scalar World.node[38].appl.middleware.CaService #cam_sent 511
scalar World.node[38].appl.middleware.ExampleService #full_proofs 1
scalar World.node[38].appl.middleware.ExampleService #half_proofs 2
scalar World.node[38].appl.middleware.ExampleService #failed_proofs 0
scalar World.node[38].appl.middleware.ExampleService #loc_proof_send 12
scalar World.node[38].nic.phy80211p busyTime 0.0013143880597015
scalar World.node[38].nic.mac1609_4 ReceivedUnicastPackets 0
scalar World.node[38].nic.mac1609_4 ReceivedBroadcasts 1400
scalar World.node[38].nic.mac1609_4 SentPackets 523
scalar World.node[38].nic.mac1609_4 SentAcknowledgements 0
scalar World.node[38].nic.mac1609_4 SNIRLostPackets 230
scalar World.node[38].nic.mac1609_4 RXTXLostPackets 16
scalar World.node[38].nic.mac1609_4 TotalLostPackets 246
scalar World.node[38].nic.mac1609_4 DroppedPacketsInMac 0
scalar World.node[38].nic.mac1609_4 TooLittleTime 0
scalar World.node[38].nic.mac1609_4 TimesIntoBackoff 525
scalar World.node[38].nic.mac1609_4 SlotsBackoff 3949
scalar World.node[38].nic.mac1609_4 NumInternalContention 0
scalar World.node[38].nic.mac1609_4 totalBusyTime 0.337699044073
scalar World.node[45].appl.middleware.CaService #cam_sent 377
scalar World.node[45].appl.middleware.ExampleService #full_proofs 0
scalar World.node[45].appl.middleware.ExampleService #half_proofs 2
scalar World.node[45].appl.middleware.ExampleService #failed_proofs 0
scalar World.node[45].appl.middleware.ExampleService #loc_proof_send 7
scalar World.node[45].nic.phy80211p busyTime 0.0012329160305343
scalar World.node[45].nic.mac1609_4 ReceivedUnicastPackets 0
scalar World.node[45].nic.mac1609_4 ReceivedBroadcasts 910
scalar World.node[45].nic.mac1609_4 SentPackets 384
scalar World.node[45].nic.mac1609_4 SentAcknowledgements 0
scalar World.node[45].nic.mac1609_4 SNIRLostPackets 84
scalar World.node[45].nic.mac1609_4 RXTXLostPackets 1
scalar World.node[45].nic.mac1609_4 TotalLostPackets 85
scalar World.node[45].nic.mac1609_4 DroppedPacketsInMac 0
scalar World.node[45].nic.mac1609_4 TooLittleTime 0
scalar World.node[45].nic.mac1609_4 TimesIntoBackoff 386
scalar World.node[45].nic.mac1609_4 SlotsBackoff 2899
scalar World.node[45].nic.mac1609_4 NumInternalContention 0
scalar World.node[45].nic.mac1609_4 totalBusyTime 0.222136
scalar World.node[44].appl.middleware.CaService #cam_sent 368
scalar World.node[44].appl.middleware.ExampleService #full_proofs 0
scalar World.node[44].appl.middleware.ExampleService #half_proofs 1
scalar World.node[44].appl.middleware.ExampleService #failed_proofs 0
scalar World.node[44].appl.middleware.ExampleService #loc_proof_send 8
scalar World.node[44].nic.phy80211p busyTime 0.00090212413793103
scalar World.node[44].nic.mac1609_4 ReceivedUnicastPackets 0
scalar World.node[44].nic.mac1609_4 ReceivedBroadcasts 694
scalar World.node[44].nic.mac1609_4 SentPackets 376
scalar World.node[44].nic.mac1609_4 SentAcknowledgements 0
scalar World.node[44].nic.mac1609_4 SNIRLostPackets 104
scalar World.node[44].nic.mac1609_4 RXTXLostPackets 26
scalar World.node[44].nic.mac1609_4 TotalLostPackets 130
scalar World.node[44].nic.mac1609_4 DroppedPacketsInMac 0
scalar World.node[44].nic.mac1609_4 TooLittleTime 0
scalar World.node[44].nic.mac1609_4 TimesIntoBackoff 376
scalar World.node[44].nic.mac1609_4 SlotsBackoff 2847
scalar World.node[44].nic.mac1609_4 NumInternalContention 0
scalar World.node[44].nic.mac1609_4 totalBusyTime 0.192136260253
scalar World.node[35].appl.middleware.CaService #cam_sent 679
scalar World.node[35].appl.middleware.ExampleService #full_proofs 1
scalar World.node[35].appl.middleware.ExampleService #half_proofs 1
scalar World.node[35].appl.middleware.ExampleService #failed_proofs 1
scalar World.node[35].appl.middleware.ExampleService #loc_proof_send 14
scalar World.node[35].nic.phy80211p busyTime 0.00134475
scalar World.node[35].nic.mac1609_4 ReceivedUnicastPackets 0
scalar World.node[35].nic.mac1609_4 ReceivedBroadcasts 2004
scalar World.node[35].nic.mac1609_4 SentPackets 693
scalar World.node[35].nic.mac1609_4 SentAcknowledgements 0
scalar World.node[35].nic.mac1609_4 SNIRLostPackets 113
scalar World.node[35].nic.mac1609_4 RXTXLostPackets 41
scalar World.node[35].nic.mac1609_4 TotalLostPackets 154
scalar World.node[35].nic.mac1609_4 DroppedPacketsInMac 0
scalar World.node[35].nic.mac1609_4 TooLittleTime 0
scalar World.node[35].nic.mac1609_4 TimesIntoBackoff 693
scalar World.node[35].nic.mac1609_4 SlotsBackoff 5151
scalar World.node[35].nic.mac1609_4 NumInternalContention 0
scalar World.node[35].nic.mac1609_4 totalBusyTime 0.455365575748
scalar World.node[42].appl.middleware.CaService #cam_sent 484
scalar World.node[42].appl.middleware.ExampleService #full_proofs 1
scalar World.node[42].appl.middleware.ExampleService #half_proofs 2
scalar World.node[42].appl.middleware.ExampleService #failed_proofs 0
scalar World.node[42].appl.middleware.ExampleService #loc_proof_send 15
scalar World.node[42].nic.phy80211p busyTime 0.0015462068965517
scalar World.node[42].nic.mac1609_4 ReceivedUnicastPackets 0
scalar World.node[42].nic.mac1609_4 ReceivedBroadcasts 1703
scalar World.node[42].nic.mac1609_4 SentPackets 499
scalar World.node[42].nic.mac1609_4 SentAcknowledgements 0
scalar World.node[42].nic.mac1609_4 SNIRLostPackets 223
scalar World.node[42].nic.mac1609_4 RXTXLostPackets 42
scalar World.node[42].nic.mac1609_4 TotalLostPackets 265
scalar World.node[42].nic.mac1609_4 DroppedPacketsInMac 0
scalar World.node[42].nic.mac1609_4 TooLittleTime 0
scalar World.node[42].nic.mac1609_4 TimesIntoBackoff 499
scalar World.node[42].nic.mac1609_4 SlotsBackoff 3616
scalar World.node[42].nic.mac1609_4 NumInternalContention 0
scalar World.node[42].nic.mac1609_4 totalBusyTime 0.384683259688
scalar World.node[58].appl.middleware.CaService #cam_sent 62
scalar World.node[58].appl.middleware.ExampleService #full_proofs 0
scalar World.node[58].appl.middleware.ExampleService #half_proofs 0
scalar World.node[58].appl.middleware.ExampleService #failed_proofs 0
scalar World.node[58].appl.middleware.ExampleService #loc_proof_send 2
scalar World.node[58].nic.phy80211p busyTime 0.0012128888888889
scalar World.node[58].nic.mac1609_4 ReceivedUnicastPackets 0
scalar World.node[58].nic.mac1609_4 ReceivedBroadcasts 132
scalar World.node[58].nic.mac1609_4 SentPackets 64
scalar World.node[58].nic.mac1609_4 SentAcknowledgements 0
scalar World.node[58].nic.mac1609_4 SNIRLostPackets 3
scalar World.node[58].nic.mac1609_4 RXTXLostPackets 4
scalar World.node[58].nic.mac1609_4 TotalLostPackets 7
scalar World.node[58].nic.mac1609_4 DroppedPacketsInMac 0
scalar World.node[58].nic.mac1609_4 TooLittleTime 0
scalar World.node[58].nic.mac1609_4 TimesIntoBackoff 64
scalar World.node[58].nic.mac1609_4 SlotsBackoff 481
scalar World.node[58].nic.mac1609_4 NumInternalContention 0
scalar World.node[58].nic.mac1609_4 totalBusyTime 0.032112
scalar World.node[52].appl.middleware.CaService #cam_sent 322
scalar World.node[52].appl.middleware.ExampleService #full_proofs 1
scalar World.node[52].appl.middleware.ExampleService #half_proofs 1
scalar World.node[52].appl.middleware.ExampleService #failed_proofs 0
scalar World.node[52].appl.middleware.ExampleService #loc_proof_send 6
scalar World.node[52].nic.phy80211p busyTime 0.0012462222222222
scalar World.node[52].nic.mac1609_4 ReceivedUnicastPackets 0
scalar World.node[52].nic.mac1609_4 ReceivedBroadcasts 740
scalar World.node[52].nic.mac1609_4 SentPackets 328
scalar World.node[52].nic.mac1609_4 SentAcknowledgements 0
scalar World.node[52].nic.mac1609_4 SNIRLostPackets 21
scalar World.node[52].nic.mac1609_4 RXTXLostPackets 1
scalar World.node[52].nic.mac1609_4 TotalLostPackets 22
scalar World.node[52].nic.mac1609_4 DroppedPacketsInMac 0
scalar World.node[52].nic.mac1609_4 TooLittleTime 0
scalar World.node[52].nic.mac1609_4 TimesIntoBackoff 328
scalar World.node[52].nic.mac1609_4 SlotsBackoff 2427
scalar World.node[52].nic.mac1609_4 NumInternalContention 0
scalar World.node[52].nic.mac1609_4 totalBusyTime 0.17611202559
scalar World.node[46].appl.middleware.CaService #cam_sent 453
scalar World.node[46].appl.middleware.ExampleService #full_proofs 0
scalar World.node[46].appl.middleware.ExampleService #half_proofs 2
scalar World.node[46].appl.middleware.ExampleService #failed_proofs 0
scalar World.node[46].appl.middleware.ExampleService #loc_proof_send 19
scalar World.node[46].nic.phy80211p busyTime 0.0015901570680628
scalar World.node[46].nic.mac1609_4 ReceivedUnicastPackets 0
scalar World.node[46].nic.mac1609_4 ReceivedBroadcasts 1754
scalar World.node[46].nic.mac1609_4 SentPackets 472
scalar World.node[46].nic.mac1609_4 SentAcknowledgements 0
scalar World.node[46].nic.mac1609_4 SNIRLostPackets 111
scalar World.node[46].nic.mac1609_4 RXTXLostPackets 39
scalar World.node[46].nic.mac1609_4 TotalLostPackets 150
scalar World.node[46].nic.mac1609_4 DroppedPacketsInMac 0
scalar World.node[46].nic.mac1609_4 TooLittleTime 0
scalar World.node[46].nic.mac1609_4 TimesIntoBackoff 472
scalar World.node[46].nic.mac1609_4 SlotsBackoff 3611
scalar World.node[46].nic.mac1609_4 NumInternalContention 0
scalar World.node[46].nic.mac1609_4 totalBusyTime 0.378432510132
scalar World.node[47].appl.middleware.CaService #cam_sent 463
scalar World.node[47].appl.middleware.ExampleService #full_proofs 0
scalar World.node[47].appl.middleware.ExampleService #half_proofs 1
scalar World.node[47].appl.middleware.ExampleService #failed_proofs 1
scalar World.node[47].appl.middleware.ExampleService #loc_proof_send 10
scalar World.node[47].nic.phy80211p busyTime 0.0011672272727273
scalar World.node[47].nic.mac1609_4 ReceivedUnicastPackets 0
scalar World.node[47].nic.mac1609_4 ReceivedBroadcasts 1168
scalar World.node[47].nic.mac1609_4 SentPackets 473
scalar World.node[47].nic.mac1609_4 SentAcknowledgements 0
scalar World.node[47].nic.mac1609_4 SNIRLostPackets 90
scalar World.node[47].nic.mac1609_4 RXTXLostPackets 27
scalar World.node[47].nic.mac1609_4 TotalLostPackets 117
scalar World.node[47].nic.mac1609_4 DroppedPacketsInMac 0
scalar World.node[47].nic.mac1609_4 TooLittleTime 0
scalar World.node[47].nic.mac1609_4 TimesIntoBackoff 474
scalar World.node[47].nic.mac1609_4 SlotsBackoff 3662
scalar World.node[47].nic.mac1609_4 NumInternalContention 0
scalar World.node[47].nic.mac1609_4 totalBusyTime 0.281873478325
scalar World.node[56].appl.middleware.CaService #cam_sent 238
scalar World.node[56].appl.middleware.ExampleService #full_proofs 0
scalar World.node[56].appl.middleware.ExampleService #half_proofs 1
scalar World.node[56].appl.middleware.ExampleService #failed_proofs 1
scalar World.node[56].appl.middleware.ExampleService #loc_proof_send 7
scalar World.node[56].nic.phy80211p busyTime 0.0015376
scalar World.node[56].nic.mac1609_4 ReceivedUnicastPackets 0
scalar World.node[56].nic.mac1609_4 ReceivedBroadcasts 835
scalar World.node[56].nic.mac1609_4 SentPackets 245
scalar World.node[56].nic.mac1609_4 SentAcknowledgements 0
scalar World.node[56].nic.mac1609_4 SNIRLostPackets 15
scalar World.node[56].nic.mac1609_4 RXTXLostPackets 8
scalar World.node[56].nic.mac1609_4 TotalLostPackets 23
scalar World.node[56].nic.mac1609_4 DroppedPacketsInMac 0
scalar World.node[56].nic.mac1609_4 TooLittleTime 0
scalar World.node[56].nic.mac1609_4 TimesIntoBackoff 246
scalar World.node[56].nic.mac1609_4 SlotsBackoff 1747
scalar World.node[56].nic.mac1609_4 NumInternalContention 0
scalar World.node[56].nic.mac1609_4 totalBusyTime 0.177861036724
scalar World.node[39].appl.middleware.CaService #cam_sent 823
scalar World.node[39].appl.middleware.ExampleService #full_proofs 1
scalar World.node[39].appl.middleware.ExampleService #half_proofs 3
scalar World.node[39].appl.middleware.ExampleService #failed_proofs 1
scalar World.node[39].appl.middleware.ExampleService #loc_proof_send 32
scalar World.node[39].nic.phy80211p busyTime 0.0015648673139158
scalar World.node[39].nic.mac1609_4 ReceivedUnicastPackets 0
scalar World.node[39].nic.mac1609_4 ReceivedBroadcasts 2800
scalar World.node[39].nic.mac1609_4 SentPackets 855
scalar World.node[39].nic.mac1609_4 SentAcknowledgements 0
scalar World.node[39].nic.mac1609_4 SNIRLostPackets 173
scalar World.node[39].nic.mac1609_4 RXTXLostPackets 82
scalar World.node[39].nic.mac1609_4 TotalLostPackets 255
scalar World.node[39].nic.mac1609_4 DroppedPacketsInMac 0
scalar World.node[39].nic.mac1609_4 TooLittleTime 0
scalar World.node[39].nic.mac1609_4 TimesIntoBackoff 877
scalar World.node[39].nic.mac1609_4 SlotsBackoff 6658
scalar World.node[39].nic.mac1609_4 NumInternalContention 0
scalar World.node[39].nic.mac1609_4 totalBusyTime 0.619375161422
scalar World.node[53].appl.middleware.CaService #cam_sent 284
scalar World.node[53].appl.middleware.ExampleService #full_proofs 0
scalar World.node[53].appl.middleware.ExampleService #half_proofs 1
scalar World.node[53].appl.middleware.ExampleService #failed_proofs 1
scalar World.node[53].appl.middleware.ExampleService #loc_proof_send 8
scalar World.node[53].nic.phy80211p busyTime 0.0015222028985507
scalar World.node[53].nic.mac1609_4 ReceivedUnicastPackets 0
scalar World.node[53].nic.mac1609_4 ReceivedBroadcasts 1231
scalar World.node[53].nic.mac1609_4 SentPackets 292
scalar World.node[53].nic.mac1609_4 SentAcknowledgements 0
scalar World.node[53].nic.mac1609_4 SNIRLostPackets 59
scalar World.node[53].nic.mac1609_4 RXTXLostPackets 13
scalar World.node[53].nic.mac1609_4 TotalLostPackets 72
scalar World.node[53].nic.mac1609_4 DroppedPacketsInMac 0
scalar World.node[53].nic.mac1609_4 TooLittleTime 0
scalar World.node[53].nic.mac1609_4 TimesIntoBackoff 292
scalar World.node[53].nic.mac1609_4 SlotsBackoff 2316
scalar World.node[53].nic.mac1609_4 NumInternalContention 0
scalar World.node[53].nic.mac1609_4 totalBusyTime 0.256604116608
scalar World.node[50].appl.middleware.CaService #cam_sent 472
scalar World.node[50].appl.middleware.ExampleService #full_proofs 0
scalar World.node[50].appl.middleware.ExampleService #half_proofs 2
scalar World.node[50].appl.middleware.ExampleService #failed_proofs 0
scalar World.node[50].appl.middleware.ExampleService #loc_proof_send 15
scalar World.node[50].nic.phy80211p busyTime 0.0013034254143646
scalar World.node[50].nic.mac1609_4 ReceivedUnicastPackets 0
scalar World.node[50].nic.mac1609_4 ReceivedBroadcasts 1345
scalar World.node[50].nic.mac1609_4 SentPackets 487
scalar World.node[50].nic.mac1609_4 SentAcknowledgements 0
scalar World.node[50].nic.mac1609_4 SNIRLostPackets 105
scalar World.node[50].nic.mac1609_4 RXTXLostPackets 26
scalar World.node[50].nic.mac1609_4 TotalLostPackets 131
scalar World.node[50].nic.mac1609_4 DroppedPacketsInMac 0
scalar World.node[50].nic.mac1609_4 TooLittleTime 0
scalar World.node[50].nic.mac1609_4 TimesIntoBackoff 491
scalar World.node[50].nic.mac1609_4 SlotsBackoff 3655
scalar World.node[50].nic.mac1609_4 NumInternalContention 0
scalar World.node[50].nic.mac1609_4 totalBusyTime 0.313815235429
scalar World.node[57].appl.middleware.CaService #cam_sent 403
scalar World.node[57].appl.middleware.ExampleService #full_proofs 1
scalar World.node[57].appl.middleware.ExampleService #half_proofs 1
scalar World.node[57].appl.middleware.ExampleService #failed_proofs 0
scalar World.node[57].appl.middleware.ExampleService #loc_proof_send 7
scalar World.node[57].nic.phy80211p busyTime 0.0014326470588235
scalar World.node[57].nic.mac1609_4 ReceivedUnicastPackets 0
scalar World.node[57].nic.mac1609_4 ReceivedBroadcasts 1167
scalar World.node[57].nic.mac1609_4 SentPackets 410
scalar World.node[57].nic.mac1609_4 SentAcknowledgements 0
scalar World.node[57].nic.mac1609_4 SNIRLostPackets 32
scalar World.node[57].nic.mac1609_4 RXTXLostPackets 11
scalar World.node[57].nic.mac1609_4 TotalLostPackets 43
scalar World.node[57].nic.mac1609_4 DroppedPacketsInMac 0
scalar World.node[57].nic.mac1609_4 TooLittleTime 0
scalar World.node[57].nic.mac1609_4 TimesIntoBackoff 412
scalar World.node[57].nic.mac1609_4 SlotsBackoff 3089
scalar World.node[57].nic.mac1609_4 NumInternalContention 0
scalar World.node[57].nic.mac1609_4 totalBusyTime 0.261378092224
scalar World.node[51].appl.middleware.CaService #cam_sent 505
scalar World.node[51].appl.middleware.ExampleService #full_proofs 0
scalar World.node[51].appl.middleware.ExampleService #half_proofs 1
scalar World.node[51].appl.middleware.ExampleService #failed_proofs 0
scalar World.node[51].appl.middleware.ExampleService #loc_proof_send 11
scalar World.node[51].nic.phy80211p busyTime 0.0014507547169811
scalar World.node[51].nic.mac1609_4 ReceivedUnicastPackets 0
scalar World.node[51].nic.mac1609_4 ReceivedBroadcasts 1729
scalar World.node[51].nic.mac1609_4 SentPackets 516
scalar World.node[51].nic.mac1609_4 SentAcknowledgements 0
scalar World.node[51].nic.mac1609_4 SNIRLostPackets 159
scalar World.node[51].nic.mac1609_4 RXTXLostPackets 24
scalar World.node[51].nic.mac1609_4 TotalLostPackets 183
scalar World.node[51].nic.mac1609_4 DroppedPacketsInMac 0
scalar World.node[51].nic.mac1609_4 TooLittleTime 0
scalar World.node[51].nic.mac1609_4 TimesIntoBackoff 521
scalar World.node[51].nic.mac1609_4 SlotsBackoff 3971
scalar World.node[51].nic.mac1609_4 NumInternalContention 0
scalar World.node[51].nic.mac1609_4 totalBusyTime 0.39154
scalar World.node[59].appl.middleware.CaService #cam_sent 418
scalar World.node[59].appl.middleware.ExampleService #full_proofs 1
scalar World.node[59].appl.middleware.ExampleService #half_proofs 1
scalar World.node[59].appl.middleware.ExampleService #failed_proofs 1
scalar World.node[59].appl.middleware.ExampleService #loc_proof_send 4
scalar World.node[59].nic.phy80211p busyTime 0.000530752
scalar World.node[59].nic.mac1609_4 ReceivedUnicastPackets 0
scalar World.node[59].nic.mac1609_4 ReceivedBroadcasts 321
scalar World.node[59].nic.mac1609_4 SentPackets 422
scalar World.node[59].nic.mac1609_4 SentAcknowledgements 0
scalar World.node[59].nic.mac1609_4 SNIRLostPackets 87
scalar World.node[59].nic.mac1609_4 RXTXLostPackets 0
scalar World.node[59].nic.mac1609_4 TotalLostPackets 87
scalar World.node[59].nic.mac1609_4 DroppedPacketsInMac 0
scalar World.node[59].nic.mac1609_4 TooLittleTime 0
scalar World.node[59].nic.mac1609_4 TimesIntoBackoff 423
scalar World.node[59].nic.mac1609_4 SlotsBackoff 3192
scalar World.node[59].nic.mac1609_4 NumInternalContention 0
scalar World.node[59].nic.mac1609_4 totalBusyTime 0.135198
scalar World.node[54].appl.middleware.CaService #cam_sent 494
scalar World.node[54].appl.middleware.ExampleService #full_proofs 0
scalar World.node[54].appl.middleware.ExampleService #half_proofs 2
scalar World.node[54].appl.middleware.ExampleService #failed_proofs 0
scalar World.node[54].appl.middleware.ExampleService #loc_proof_send 10
scalar World.node[54].nic.phy80211p busyTime 0.0013161015228426
scalar World.node[54].nic.mac1609_4 ReceivedUnicastPackets 0
scalar World.node[54].nic.mac1609_4 ReceivedBroadcasts 1547
scalar World.node[54].nic.mac1609_4 SentPackets 504
scalar World.node[54].nic.mac1609_4 SentAcknowledgements 0
scalar World.node[54].nic.mac1609_4 SNIRLostPackets 48
scalar World.node[54].nic.mac1609_4 RXTXLostPackets 11
scalar World.node[54].nic.mac1609_4 TotalLostPackets 59
scalar World.node[54].nic.mac1609_4 DroppedPacketsInMac 0
scalar World.node[54].nic.mac1609_4 TooLittleTime 0
scalar World.node[54].nic.mac1609_4 TimesIntoBackoff 505
scalar World.node[54].nic.mac1609_4 SlotsBackoff 3498
scalar World.node[54].nic.mac1609_4 NumInternalContention 0
scalar World.node[54].nic.mac1609_4 totalBusyTime 0.339304089434
scalar World.node[55].appl.middleware.CaService #cam_sent 408
scalar World.node[55].appl.middleware.ExampleService #full_proofs 0
scalar World.node[55].appl.middleware.ExampleService #half_proofs 2
scalar World.node[55].appl.middleware.ExampleService #failed_proofs 0
scalar World.node[55].appl.middleware.ExampleService #loc_proof_send 10
scalar World.node[55].nic.phy80211p busyTime 0.00076116582914573
scalar World.node[55].nic.mac1609_4 ReceivedUnicastPackets 0
scalar World.node[55].nic.mac1609_4 ReceivedBroadcasts 900
scalar World.node[55].nic.mac1609_4 SentPackets 418
scalar World.node[55].nic.mac1609_4 SentAcknowledgements 0
scalar World.node[55].nic.mac1609_4 SNIRLostPackets 30
scalar World.node[55].nic.mac1609_4 RXTXLostPackets 8
scalar World.node[55].nic.mac1609_4 TotalLostPackets 38
scalar World.node[55].nic.mac1609_4 DroppedPacketsInMac 0
scalar World.node[55].nic.mac1609_4 TooLittleTime 0
scalar World.node[55].nic.mac1609_4 TimesIntoBackoff 419
scalar World.node[55].nic.mac1609_4 SlotsBackoff 3123
scalar World.node[55].nic.mac1609_4 NumInternalContention 0
scalar World.node[55].nic.mac1609_4 totalBusyTime 0.219266011238
scalar World.node[64].appl.middleware.CaService #cam_sent 182
scalar World.node[64].appl.middleware.ExampleService #full_proofs 0
scalar World.node[64].appl.middleware.ExampleService #half_proofs 0
scalar World.node[64].appl.middleware.ExampleService #failed_proofs 0
scalar World.node[64].appl.middleware.ExampleService #loc_proof_send 1
scalar World.node[64].nic.phy80211p busyTime 0.00056918518518519
scalar World.node[64].nic.mac1609_4 ReceivedUnicastPackets 0
scalar World.node[64].nic.mac1609_4 ReceivedBroadcasts 182
scalar World.node[64].nic.mac1609_4 SentPackets 183
scalar World.node[64].nic.mac1609_4 SentAcknowledgements 0
scalar World.node[64].nic.mac1609_4 SNIRLostPackets 6
scalar World.node[64].nic.mac1609_4 RXTXLostPackets 0
scalar World.node[64].nic.mac1609_4 TotalLostPackets 6
scalar World.node[64].nic.mac1609_4 DroppedPacketsInMac 0
scalar World.node[64].nic.mac1609_4 TooLittleTime 0
scalar World.node[64].nic.mac1609_4 TimesIntoBackoff 184
scalar World.node[64].nic.mac1609_4 SlotsBackoff 1401
scalar World.node[64].nic.mac1609_4 NumInternalContention 0
scalar World.node[64].nic.mac1609_4 totalBusyTime 0.060719
scalar World.node[49].appl.middleware.CaService #cam_sent 664
scalar World.node[49].appl.middleware.ExampleService #full_proofs 2
scalar World.node[49].appl.middleware.ExampleService #half_proofs 1
scalar World.node[49].appl.middleware.ExampleService #failed_proofs 1
scalar World.node[49].appl.middleware.ExampleService #loc_proof_send 15
scalar World.node[49].nic.phy80211p busyTime 0.0010658765432099
scalar World.node[49].nic.mac1609_4 ReceivedUnicastPackets 0
scalar World.node[49].nic.mac1609_4 ReceivedBroadcasts 2004
scalar World.node[49].nic.mac1609_4 SentPackets 679
scalar World.node[49].nic.mac1609_4 SentAcknowledgements 0
scalar World.node[49].nic.mac1609_4 SNIRLostPackets 122
scalar World.node[49].nic.mac1609_4 RXTXLostPackets 9
scalar World.node[49].nic.mac1609_4 TotalLostPackets 131
scalar World.node[49].nic.mac1609_4 DroppedPacketsInMac 0
scalar World.node[49].nic.mac1609_4 TooLittleTime 0
scalar World.node[49].nic.mac1609_4 TimesIntoBackoff 679
scalar World.node[49].nic.mac1609_4 SlotsBackoff 5182
scalar World.node[49].nic.mac1609_4 NumInternalContention 0
scalar World.node[49].nic.mac1609_4 totalBusyTime 0.45460701065
scalar World.node[60].appl.middleware.CaService #cam_sent 452
scalar World.node[60].appl.middleware.ExampleService #full_proofs 1
scalar World.node[60].appl.middleware.ExampleService #half_proofs 1
scalar World.node[60].appl.middleware.ExampleService #failed_proofs 1
scalar World.node[60].appl.middleware.ExampleService #loc_proof_send 6
scalar World.node[60].nic.phy80211p busyTime 0.00051094736842105
scalar World.node[60].nic.mac1609_4 ReceivedUnicastPackets 0
scalar World.node[60].nic.mac1609_4 ReceivedBroadcasts 442
scalar World.node[60].nic.mac1609_4 SentPackets 458
scalar World.node[60].nic.mac1609_4 SentAcknowledgements 0
scalar World.node[60].nic.mac1609_4 SNIRLostPackets 33
scalar World.node[60].nic.mac1609_4 RXTXLostPackets 6
scalar World.node[60].nic.mac1609_4 TotalLostPackets 39
scalar World.node[60].nic.mac1609_4 DroppedPacketsInMac 0
scalar World.node[60].nic.mac1609_4 TooLittleTime 0
scalar World.node[60].nic.mac1609_4 TimesIntoBackoff 458
scalar World.node[60].nic.mac1609_4 SlotsBackoff 3437
scalar World.node[60].nic.mac1609_4 NumInternalContention 0
scalar World.node[60].nic.mac1609_4 totalBusyTime 0.15257
scalar World.node[61].appl.middleware.CaService #cam_sent 425
scalar World.node[61].appl.middleware.ExampleService #full_proofs 1
scalar World.node[61].appl.middleware.ExampleService #half_proofs 0
scalar World.node[61].appl.middleware.ExampleService #failed_proofs 0
scalar World.node[61].appl.middleware.ExampleService #loc_proof_send 6
scalar World.node[61].nic.phy80211p busyTime 0.00063802409638554
scalar World.node[61].nic.mac1609_4 ReceivedUnicastPackets 0
scalar World.node[61].nic.mac1609_4 ReceivedBroadcasts 530
scalar World.node[61].nic.mac1609_4 SentPackets 431
scalar World.node[61].nic.mac1609_4 SentAcknowledgements 0
scalar World.node[61].nic.mac1609_4 SNIRLostPackets 120
scalar World.node[61].nic.mac1609_4 RXTXLostPackets 0
scalar World.node[61].nic.mac1609_4 TotalLostPackets 120
scalar World.node[61].nic.mac1609_4 DroppedPacketsInMac 0
scalar World.node[61].nic.mac1609_4 TooLittleTime 0
scalar World.node[61].nic.mac1609_4 TimesIntoBackoff 431
scalar World.node[61].nic.mac1609_4 SlotsBackoff 3199
scalar World.node[61].nic.mac1609_4 NumInternalContention 0
scalar World.node[61].nic.mac1609_4 totalBusyTime 0.176591
scalar World.node[65].appl.middleware.CaService #cam_sent 404
scalar World.node[65].appl.middleware.ExampleService #full_proofs 0
scalar World.node[65].appl.middleware.ExampleService #half_proofs 1
scalar World.node[65].appl.middleware.ExampleService #failed_proofs 0
scalar World.node[65].appl.middleware.ExampleService #loc_proof_send 2
scalar World.node[65].nic.phy80211p busyTime 0.00045044628099174
scalar World.node[65].nic.mac1609_4 ReceivedUnicastPackets 0
scalar World.node[65].nic.mac1609_4 ReceivedBroadcasts 290
scalar World.node[65].nic.mac1609_4 SentPackets 406
scalar World.node[65].nic.mac1609_4 SentAcknowledgements 0
scalar World.node[65].nic.mac1609_4 SNIRLostPackets 44
scalar World.node[65].nic.mac1609_4 RXTXLostPackets 0
scalar World.node[65].nic.mac1609_4 TotalLostPackets 44
scalar World.node[65].nic.mac1609_4 DroppedPacketsInMac 0
scalar World.node[65].nic.mac1609_4 TooLittleTime 0
scalar World.node[65].nic.mac1609_4 TimesIntoBackoff 406
scalar World.node[65].nic.mac1609_4 SlotsBackoff 2934
scalar World.node[65].nic.mac1609_4 NumInternalContention 0
scalar World.node[65].nic.mac1609_4 totalBusyTime 0.121054
scalar World.node[66].appl.middleware.CaService #cam_sent 351
scalar World.node[66].appl.middleware.ExampleService #full_proofs 2
scalar World.node[66].appl.middleware.ExampleService #half_proofs 0
scalar World.node[66].appl.middleware.ExampleService #failed_proofs 0
scalar World.node[66].appl.middleware.ExampleService #loc_proof_send 5
scalar World.node[66].nic.phy80211p busyTime 0.00058458536585366
scalar World.node[66].nic.mac1609_4 ReceivedUnicastPackets 0
scalar World.node[66].nic.mac1609_4 ReceivedBroadcasts 405
scalar World.node[66].nic.mac1609_4 SentPackets 356
scalar World.node[66].nic.mac1609_4 SentAcknowledgements 0
scalar World.node[66].nic.mac1609_4 SNIRLostPackets 37
scalar World.node[66].nic.mac1609_4 RXTXLostPackets 0
scalar World.node[66].nic.mac1609_4 TotalLostPackets 37
scalar World.node[66].nic.mac1609_4 DroppedPacketsInMac 0
scalar World.node[66].nic.mac1609_4 TooLittleTime 0
scalar World.node[66].nic.mac1609_4 TimesIntoBackoff 357
scalar World.node[66].nic.mac1609_4 SlotsBackoff 2594
scalar World.node[66].nic.mac1609_4 NumInternalContention 0
scalar World.node[66].nic.mac1609_4 totalBusyTime 0.130196
scalar World.node[67].appl.middleware.CaService #cam_sent 280
scalar World.node[67].appl.middleware.ExampleService #full_proofs 0
scalar World.node[67].appl.middleware.ExampleService #half_proofs 1
scalar World.node[67].appl.middleware.ExampleService #failed_proofs 0
scalar World.node[67].appl.middleware.ExampleService #loc_proof_send 5
scalar World.node[67].nic.phy80211p busyTime 0.00077442857142857
scalar World.node[67].nic.mac1609_4 ReceivedUnicastPackets 0
scalar World.node[67].nic.mac1609_4 ReceivedBroadcasts 474
scalar World.node[67].nic.mac1609_4 SentPackets 285
scalar World.node[67].nic.mac1609_4 SentAcknowledgements 0
scalar World.node[67].nic.mac1609_4 SNIRLostPackets 57
scalar World.node[67].nic.mac1609_4 RXTXLostPackets 5
scalar World.node[67].nic.mac1609_4 TotalLostPackets 62
scalar World.node[67].nic.mac1609_4 DroppedPacketsInMac 0
scalar World.node[67].nic.mac1609_4 TooLittleTime 0
scalar World.node[67].nic.mac1609_4 TimesIntoBackoff 285
scalar World.node[67].nic.mac1609_4 SlotsBackoff 2142
scalar World.node[67].nic.mac1609_4 NumInternalContention 0
scalar World.node[67].nic.mac1609_4 totalBusyTime 0.133221207829
scalar World.node[62].appl.middleware.CaService #cam_sent 637
scalar World.node[62].appl.middleware.ExampleService #full_proofs 2
scalar World.node[62].appl.middleware.ExampleService #half_proofs 1
scalar World.node[62].appl.middleware.ExampleService #failed_proofs 0
scalar World.node[62].appl.middleware.ExampleService #loc_proof_send 8
scalar World.node[62].nic.phy80211p busyTime 0.0006481923076923
scalar World.node[62].nic.mac1609_4 ReceivedUnicastPackets 0
scalar World.node[62].nic.mac1609_4 ReceivedBroadcasts 772
scalar World.node[62].nic.mac1609_4 SentPackets 645
scalar World.node[62].nic.mac1609_4 SentAcknowledgements 0
scalar World.node[62].nic.mac1609_4 SNIRLostPackets 54
scalar World.node[62].nic.mac1609_4 RXTXLostPackets 3
scalar World.node[62].nic.mac1609_4 TotalLostPackets 57
scalar World.node[62].nic.mac1609_4 DroppedPacketsInMac 0
scalar World.node[62].nic.mac1609_4 TooLittleTime 0
scalar World.node[62].nic.mac1609_4 TimesIntoBackoff 647
scalar World.node[62].nic.mac1609_4 SlotsBackoff 4789
scalar World.node[62].nic.mac1609_4 NumInternalContention 0
scalar World.node[62].nic.mac1609_4 totalBusyTime 0.240005108573
scalar World.node[75].appl.middleware.CaService #cam_sent 158
scalar World.node[75].appl.middleware.ExampleService #full_proofs 0
scalar World.node[75].appl.middleware.ExampleService #half_proofs 0
scalar World.node[75].appl.middleware.ExampleService #failed_proofs 0
scalar World.node[75].appl.middleware.ExampleService #loc_proof_send 0
scalar World.node[75].nic.phy80211p busyTime 0.00036510638297872
scalar World.node[75].nic.mac1609_4 ReceivedUnicastPackets 0
scalar World.node[75].nic.mac1609_4 ReceivedBroadcasts 96
scalar World.node[75].nic.mac1609_4 SentPackets 158
scalar World.node[75].nic.mac1609_4 SentAcknowledgements 0
scalar World.node[75].nic.mac1609_4 SNIRLostPackets 9
scalar World.node[75].nic.mac1609_4 RXTXLostPackets 0
scalar World.node[75].nic.mac1609_4 TotalLostPackets 9
scalar World.node[75].nic.mac1609_4 DroppedPacketsInMac 0
scalar World.node[75].nic.mac1609_4 TooLittleTime 0
scalar World.node[75].nic.mac1609_4 TimesIntoBackoff 158
scalar World.node[75].nic.mac1609_4 SlotsBackoff 1179
scalar World.node[75].nic.mac1609_4 NumInternalContention 0
scalar World.node[75].nic.mac1609_4 totalBusyTime 0.04311
scalar World.node[63].appl.middleware.CaService #cam_sent 523
scalar World.node[63].appl.middleware.ExampleService #full_proofs 3
scalar World.node[63].appl.middleware.ExampleService #half_proofs 1
scalar World.node[63].appl.middleware.ExampleService #failed_proofs 0
scalar World.node[63].appl.middleware.ExampleService #loc_proof_send 11
scalar World.node[63].nic.phy80211p busyTime 0.00076057416267942
scalar World.node[63].nic.mac1609_4 ReceivedUnicastPackets 0
scalar World.node[63].nic.mac1609_4 ReceivedBroadcasts 919
scalar World.node[63].nic.mac1609_4 SentPackets 534
scalar World.node[63].nic.mac1609_4 SentAcknowledgements 0
scalar World.node[63].nic.mac1609_4 SNIRLostPackets 57
scalar World.node[63].nic.mac1609_4 RXTXLostPackets 5
scalar World.node[63].nic.mac1609_4 TotalLostPackets 62
scalar World.node[63].nic.mac1609_4 DroppedPacketsInMac 0
scalar World.node[63].nic.mac1609_4 TooLittleTime 0
scalar World.node[63].nic.mac1609_4 TimesIntoBackoff 535
[...]
scalar World.node[222].nic.mac1609_4 TimesIntoBackoff 548
scalar World.node[222].nic.mac1609_4 SlotsBackoff 4147
scalar World.node[222].nic.mac1609_4 NumInternalContention 0
scalar World.node[222].nic.mac1609_4 totalBusyTime 0.338796
scalar World.node[224].appl.middleware.CaService #cam_sent 469
scalar World.node[224].appl.middleware.ExampleService #full_proofs 0
scalar World.node[224].appl.middleware.ExampleService #half_proofs 2
scalar World.node[224].appl.middleware.ExampleService #failed_proofs 0
scalar World.node[224].appl.middleware.ExampleService #loc_proof_send 9
scalar World.node[224].nic.phy80211p busyTime 0.0012187341772152
scalar World.node[224].nic.mac1609_4 ReceivedUnicastPackets 0
scalar World.node[224].nic.mac1609_4 ReceivedBroadcasts 1031
scalar World.node[224].nic.mac1609_4 SentPackets 478
scalar World.node[224].nic.mac1609_4 SentAcknowledgements 0
scalar World.node[224].nic.mac1609_4 SNIRLostPackets 154
scalar World.node[224].nic.mac1609_4 RXTXLostPackets 9
scalar World.node[224].nic.mac1609_4 TotalLostPackets 163
scalar World.node[224].nic.mac1609_4 DroppedPacketsInMac 0
scalar World.node[224].nic.mac1609_4 TooLittleTime 0
scalar World.node[224].nic.mac1609_4 TimesIntoBackoff 481
scalar World.node[224].nic.mac1609_4 SlotsBackoff 3587
scalar World.node[224].nic.mac1609_4 NumInternalContention 0
scalar World.node[224].nic.mac1609_4 totalBusyTime 0.270062080057
scalar World.node[232].appl.middleware.CaService #cam_sent 138
scalar World.node[232].appl.middleware.ExampleService #full_proofs 1
scalar World.node[232].appl.middleware.ExampleService #half_proofs 0
scalar World.node[232].appl.middleware.ExampleService #failed_proofs 0
scalar World.node[232].appl.middleware.ExampleService #loc_proof_send 2
scalar World.node[232].nic.phy80211p busyTime 0.00050029268292683
scalar World.node[232].nic.mac1609_4 ReceivedUnicastPackets 0
scalar World.node[232].nic.mac1609_4 ReceivedBroadcasts 114
scalar World.node[232].nic.mac1609_4 SentPackets 140
scalar World.node[232].nic.mac1609_4 SentAcknowledgements 0
scalar World.node[232].nic.mac1609_4 SNIRLostPackets 12
scalar World.node[232].nic.mac1609_4 RXTXLostPackets 0
scalar World.node[232].nic.mac1609_4 TotalLostPackets 12
scalar World.node[232].nic.mac1609_4 DroppedPacketsInMac 0
scalar World.node[232].nic.mac1609_4 TooLittleTime 0
scalar World.node[232].nic.mac1609_4 TimesIntoBackoff 140
scalar World.node[232].nic.mac1609_4 SlotsBackoff 1044
scalar World.node[232].nic.mac1609_4 NumInternalContention 0
scalar World.node[232].nic.mac1609_4 totalBusyTime 0.043388
scalar World.node[230].appl.middleware.CaService #cam_sent 278
scalar World.node[230].appl.middleware.ExampleService #full_proofs 2
scalar World.node[230].appl.middleware.ExampleService #half_proofs 0
scalar World.node[230].appl.middleware.ExampleService #failed_proofs 0
scalar World.node[230].appl.middleware.ExampleService #loc_proof_send 3
scalar World.node[230].nic.phy80211p busyTime 0.00077320481927711
scalar World.node[230].nic.mac1609_4 ReceivedUnicastPackets 0
scalar World.node[230].nic.mac1609_4 ReceivedBroadcasts 363
scalar World.node[230].nic.mac1609_4 SentPackets 281
scalar World.node[230].nic.mac1609_4 SentAcknowledgements 0
scalar World.node[230].nic.mac1609_4 SNIRLostPackets 31
scalar World.node[230].nic.mac1609_4 RXTXLostPackets 0
scalar World.node[230].nic.mac1609_4 TotalLostPackets 31
scalar World.node[230].nic.mac1609_4 DroppedPacketsInMac 0
scalar World.node[230].nic.mac1609_4 TooLittleTime 0
scalar World.node[230].nic.mac1609_4 TimesIntoBackoff 282
scalar World.node[230].nic.mac1609_4 SlotsBackoff 2230
scalar World.node[230].nic.mac1609_4 NumInternalContention 0
scalar World.node[230].nic.mac1609_4 totalBusyTime 0.110145
scalar World.node[227].appl.middleware.CaService #cam_sent 371
scalar World.node[227].appl.middleware.ExampleService #full_proofs 1
scalar World.node[227].appl.middleware.ExampleService #half_proofs 1
scalar World.node[227].appl.middleware.ExampleService #failed_proofs 0
scalar World.node[227].appl.middleware.ExampleService #loc_proof_send 5
scalar World.node[227].nic.phy80211p busyTime 0.00065844776119403
scalar World.node[227].nic.mac1609_4 ReceivedUnicastPackets 0
scalar World.node[227].nic.mac1609_4 ReceivedBroadcasts 477
scalar World.node[227].nic.mac1609_4 SentPackets 376
scalar World.node[227].nic.mac1609_4 SentAcknowledgements 0
scalar World.node[227].nic.mac1609_4 SNIRLostPackets 67
scalar World.node[227].nic.mac1609_4 RXTXLostPackets 4
scalar World.node[227].nic.mac1609_4 TotalLostPackets 71
scalar World.node[227].nic.mac1609_4 DroppedPacketsInMac 0
scalar World.node[227].nic.mac1609_4 TooLittleTime 0
scalar World.node[227].nic.mac1609_4 TimesIntoBackoff 376
scalar World.node[227].nic.mac1609_4 SlotsBackoff 2709
scalar World.node[227].nic.mac1609_4 NumInternalContention 0
scalar World.node[227].nic.mac1609_4 totalBusyTime 0.149736
scalar World.node[226].appl.middleware.CaService #cam_sent 384
scalar World.node[226].appl.middleware.ExampleService #full_proofs 1
scalar World.node[226].appl.middleware.ExampleService #half_proofs 0
scalar World.node[226].appl.middleware.ExampleService #failed_proofs 0
scalar World.node[226].appl.middleware.ExampleService #loc_proof_send 6
scalar World.node[226].nic.phy80211p busyTime 0.00081578666666666
scalar World.node[226].nic.mac1609_4 ReceivedUnicastPackets 0
scalar World.node[226].nic.mac1609_4 ReceivedBroadcasts 683
scalar World.node[226].nic.mac1609_4 SentPackets 390
scalar World.node[226].nic.mac1609_4 SentAcknowledgements 0
scalar World.node[226].nic.mac1609_4 SNIRLostPackets 70
scalar World.node[226].nic.mac1609_4 RXTXLostPackets 6
scalar World.node[226].nic.mac1609_4 TotalLostPackets 76
scalar World.node[226].nic.mac1609_4 DroppedPacketsInMac 0
scalar World.node[226].nic.mac1609_4 TooLittleTime 0
scalar World.node[226].nic.mac1609_4 TimesIntoBackoff 390
scalar World.node[226].nic.mac1609_4 SlotsBackoff 2904
scalar World.node[226].nic.mac1609_4 NumInternalContention 0
scalar World.node[226].nic.mac1609_4 totalBusyTime 0.185822002998
scalar World.node[228].appl.middleware.CaService #cam_sent 336
scalar World.node[228].appl.middleware.ExampleService #full_proofs 1
scalar World.node[228].appl.middleware.ExampleService #half_proofs 0
scalar World.node[228].appl.middleware.ExampleService #failed_proofs 0
scalar World.node[228].appl.middleware.ExampleService #loc_proof_send 9
scalar World.node[228].nic.phy80211p busyTime 0.0012343870967742
scalar World.node[228].nic.mac1609_4 ReceivedUnicastPackets 0
scalar World.node[228].nic.mac1609_4 ReceivedBroadcasts 762
scalar World.node[228].nic.mac1609_4 SentPackets 345
scalar World.node[228].nic.mac1609_4 SentAcknowledgements 0
scalar World.node[228].nic.mac1609_4 SNIRLostPackets 180
scalar World.node[228].nic.mac1609_4 RXTXLostPackets 8
scalar World.node[228].nic.mac1609_4 TotalLostPackets 188
scalar World.node[228].nic.mac1609_4 DroppedPacketsInMac 0
scalar World.node[228].nic.mac1609_4 TooLittleTime 0
scalar World.node[228].nic.mac1609_4 TimesIntoBackoff 345
scalar World.node[228].nic.mac1609_4 SlotsBackoff 2584
scalar World.node[228].nic.mac1609_4 NumInternalContention 0
scalar World.node[228].nic.mac1609_4 totalBusyTime 0.209025
scalar World.node[225].appl.middleware.CaService #cam_sent 472
scalar World.node[225].appl.middleware.ExampleService #full_proofs 1
scalar World.node[225].appl.middleware.ExampleService #half_proofs 1
scalar World.node[225].appl.middleware.ExampleService #failed_proofs 0
scalar World.node[225].appl.middleware.ExampleService #loc_proof_send 10
scalar World.node[225].nic.phy80211p busyTime 0.0011875056179775
scalar World.node[225].nic.mac1609_4 ReceivedUnicastPackets 0
scalar World.node[225].nic.mac1609_4 ReceivedBroadcasts 1279
scalar World.node[225].nic.mac1609_4 SentPackets 482
scalar World.node[225].nic.mac1609_4 SentAcknowledgements 0
scalar World.node[225].nic.mac1609_4 SNIRLostPackets 22
scalar World.node[225].nic.mac1609_4 RXTXLostPackets 12
scalar World.node[225].nic.mac1609_4 TotalLostPackets 34
scalar World.node[225].nic.mac1609_4 DroppedPacketsInMac 0
scalar World.node[225].nic.mac1609_4 TooLittleTime 0
scalar World.node[225].nic.mac1609_4 TimesIntoBackoff 483
scalar World.node[225].nic.mac1609_4 SlotsBackoff 3606
scalar World.node[225].nic.mac1609_4 NumInternalContention 0
scalar World.node[225].nic.mac1609_4 totalBusyTime 0.289970082683
scalar World.node[234].appl.middleware.CaService #cam_sent 296
scalar World.node[234].appl.middleware.ExampleService #full_proofs 0
scalar World.node[234].appl.middleware.ExampleService #half_proofs 1
scalar World.node[234].appl.middleware.ExampleService #failed_proofs 0
scalar World.node[234].appl.middleware.ExampleService #loc_proof_send 2
scalar World.node[234].nic.phy80211p busyTime 0.00044321649484536
scalar World.node[234].nic.mac1609_4 ReceivedUnicastPackets 0
scalar World.node[234].nic.mac1609_4 ReceivedBroadcasts 255
scalar World.node[234].nic.mac1609_4 SentPackets 298
scalar World.node[234].nic.mac1609_4 SentAcknowledgements 0
scalar World.node[234].nic.mac1609_4 SNIRLostPackets 10
scalar World.node[234].nic.mac1609_4 RXTXLostPackets 0
scalar World.node[234].nic.mac1609_4 TotalLostPackets 10
scalar World.node[234].nic.mac1609_4 DroppedPacketsInMac 0
scalar World.node[234].nic.mac1609_4 TooLittleTime 0
scalar World.node[234].nic.mac1609_4 TimesIntoBackoff 298
scalar World.node[234].nic.mac1609_4 SlotsBackoff 2141
scalar World.node[234].nic.mac1609_4 NumInternalContention 0
scalar World.node[234].nic.mac1609_4 totalBusyTime 0.091762
scalar World.node[237].appl.middleware.CaService #cam_sent 144
scalar World.node[237].appl.middleware.ExampleService #full_proofs 0
scalar World.node[237].appl.middleware.ExampleService #half_proofs 0
scalar World.node[237].appl.middleware.ExampleService #failed_proofs 1
scalar World.node[237].appl.middleware.ExampleService #loc_proof_send 1
scalar World.node[237].nic.phy80211p busyTime 0.00012297674418605
scalar World.node[237].nic.mac1609_4 ReceivedUnicastPackets 0
scalar World.node[237].nic.mac1609_4 ReceivedBroadcasts 30
scalar World.node[237].nic.mac1609_4 SentPackets 145
scalar World.node[237].nic.mac1609_4 SentAcknowledgements 0
scalar World.node[237].nic.mac1609_4 SNIRLostPackets 2
scalar World.node[237].nic.mac1609_4 RXTXLostPackets 0
scalar World.node[237].nic.mac1609_4 TotalLostPackets 2
scalar World.node[237].nic.mac1609_4 DroppedPacketsInMac 0
scalar World.node[237].nic.mac1609_4 TooLittleTime 0
scalar World.node[237].nic.mac1609_4 TimesIntoBackoff 145
scalar World.node[237].nic.mac1609_4 SlotsBackoff 1091
scalar World.node[237].nic.mac1609_4 NumInternalContention 0
scalar World.node[237].nic.mac1609_4 totalBusyTime 0.029041
scalar World.node[231].appl.middleware.CaService #cam_sent 388
scalar World.node[231].appl.middleware.ExampleService #full_proofs 1
scalar World.node[231].appl.middleware.ExampleService #half_proofs 1
scalar World.node[231].appl.middleware.ExampleService #failed_proofs 0
scalar World.node[231].appl.middleware.ExampleService #loc_proof_send 6
scalar World.node[231].nic.phy80211p busyTime 0.00066893959731543
scalar World.node[231].nic.mac1609_4 ReceivedUnicastPackets 0
scalar World.node[231].nic.mac1609_4 ReceivedBroadcasts 596
scalar World.node[231].nic.mac1609_4 SentPackets 394
scalar World.node[231].nic.mac1609_4 SentAcknowledgements 0
scalar World.node[231].nic.mac1609_4 SNIRLostPackets 16
scalar World.node[231].nic.mac1609_4 RXTXLostPackets 1
scalar World.node[231].nic.mac1609_4 TotalLostPackets 17
scalar World.node[231].nic.mac1609_4 DroppedPacketsInMac 0
scalar World.node[231].nic.mac1609_4 TooLittleTime 0
scalar World.node[231].nic.mac1609_4 TimesIntoBackoff 394
scalar World.node[231].nic.mac1609_4 SlotsBackoff 2997
scalar World.node[231].nic.mac1609_4 NumInternalContention 0
scalar World.node[231].nic.mac1609_4 totalBusyTime 0.164138
scalar World.node[235].appl.middleware.CaService #cam_sent 377
scalar World.node[235].appl.middleware.ExampleService #full_proofs 0
scalar World.node[235].appl.middleware.ExampleService #half_proofs 2
scalar World.node[235].appl.middleware.ExampleService #failed_proofs 0
scalar World.node[235].appl.middleware.ExampleService #loc_proof_send 3
scalar World.node[235].nic.phy80211p busyTime 0.00057438655462185
scalar World.node[235].nic.mac1609_4 ReceivedUnicastPackets 0
scalar World.node[235].nic.mac1609_4 ReceivedBroadcasts 401
scalar World.node[235].nic.mac1609_4 SentPackets 380
scalar World.node[235].nic.mac1609_4 SentAcknowledgements 0
scalar World.node[235].nic.mac1609_4 SNIRLostPackets 19
scalar World.node[235].nic.mac1609_4 RXTXLostPackets 0
scalar World.node[235].nic.mac1609_4 TotalLostPackets 19
scalar World.node[235].nic.mac1609_4 DroppedPacketsInMac 0
scalar World.node[235].nic.mac1609_4 TooLittleTime 0
scalar World.node[235].nic.mac1609_4 TimesIntoBackoff 380
scalar World.node[235].nic.mac1609_4 SlotsBackoff 2895
scalar World.node[235].nic.mac1609_4 NumInternalContention 0
scalar World.node[235].nic.mac1609_4 totalBusyTime 0.130412
scalar World.node[229].appl.middleware.CaService #cam_sent 604
scalar World.node[229].appl.middleware.ExampleService #full_proofs 1
scalar World.node[229].appl.middleware.ExampleService #half_proofs 1
scalar World.node[229].appl.middleware.ExampleService #failed_proofs 0
scalar World.node[229].appl.middleware.ExampleService #loc_proof_send 8
scalar World.node[229].nic.phy80211p busyTime 0.00090368780487804
scalar World.node[229].nic.mac1609_4 ReceivedUnicastPackets 0
scalar World.node[229].nic.mac1609_4 ReceivedBroadcasts 1101
scalar World.node[229].nic.mac1609_4 SentPackets 612
scalar World.node[229].nic.mac1609_4 SentAcknowledgements 0
scalar World.node[229].nic.mac1609_4 SNIRLostPackets 37
scalar World.node[229].nic.mac1609_4 RXTXLostPackets 3
scalar World.node[229].nic.mac1609_4 TotalLostPackets 40
scalar World.node[229].nic.mac1609_4 DroppedPacketsInMac 0
scalar World.node[229].nic.mac1609_4 TooLittleTime 0
scalar World.node[229].nic.mac1609_4 TimesIntoBackoff 612
scalar World.node[229].nic.mac1609_4 SlotsBackoff 4549
scalar World.node[229].nic.mac1609_4 NumInternalContention 0
scalar World.node[229].nic.mac1609_4 totalBusyTime 0.284756
scalar World.node[238].appl.middleware.CaService #cam_sent 409
scalar World.node[238].appl.middleware.ExampleService #full_proofs 0
scalar World.node[238].appl.middleware.ExampleService #half_proofs 1
scalar World.node[238].appl.middleware.ExampleService #failed_proofs 1
scalar World.node[238].appl.middleware.ExampleService #loc_proof_send 7
scalar World.node[238].nic.phy80211p busyTime 0.00067572602739726
scalar World.node[238].nic.mac1609_4 ReceivedUnicastPackets 0
scalar World.node[238].nic.mac1609_4 ReceivedBroadcasts 583
scalar World.node[238].nic.mac1609_4 SentPackets 416
scalar World.node[238].nic.mac1609_4 SentAcknowledgements 0
scalar World.node[238].nic.mac1609_4 SNIRLostPackets 21
scalar World.node[238].nic.mac1609_4 RXTXLostPackets 2
scalar World.node[238].nic.mac1609_4 TotalLostPackets 23
scalar World.node[238].nic.mac1609_4 DroppedPacketsInMac 0
scalar World.node[238].nic.mac1609_4 TooLittleTime 0
scalar World.node[238].nic.mac1609_4 TimesIntoBackoff 416
scalar World.node[238].nic.mac1609_4 SlotsBackoff 3196
scalar World.node[238].nic.mac1609_4 NumInternalContention 0
scalar World.node[238].nic.mac1609_4 totalBusyTime 0.166304
scalar World.node[233].appl.middleware.CaService #cam_sent 617
scalar World.node[233].appl.middleware.ExampleService #full_proofs 1
scalar World.node[233].appl.middleware.ExampleService #half_proofs 2
scalar World.node[233].appl.middleware.ExampleService #failed_proofs 0
scalar World.node[233].appl.middleware.ExampleService #loc_proof_send 11
scalar World.node[233].nic.phy80211p busyTime 0.00075482553191489
scalar World.node[233].nic.mac1609_4 ReceivedUnicastPackets 0
scalar World.node[233].nic.mac1609_4 ReceivedBroadcasts 1076
scalar World.node[233].nic.mac1609_4 SentPackets 628
scalar World.node[233].nic.mac1609_4 SentAcknowledgements 0
scalar World.node[233].nic.mac1609_4 SNIRLostPackets 14
scalar World.node[233].nic.mac1609_4 RXTXLostPackets 6
scalar World.node[233].nic.mac1609_4 TotalLostPackets 20
scalar World.node[233].nic.mac1609_4 DroppedPacketsInMac 0
scalar World.node[233].nic.mac1609_4 TooLittleTime 0
scalar World.node[233].nic.mac1609_4 TimesIntoBackoff 629
scalar World.node[233].nic.mac1609_4 SlotsBackoff 4776
scalar World.node[233].nic.mac1609_4 NumInternalContention 0
scalar World.node[233].nic.mac1609_4 totalBusyTime 0.279996035202
scalar World.node[236].appl.middleware.CaService #cam_sent 404
scalar World.node[236].appl.middleware.ExampleService #full_proofs 1
scalar World.node[236].appl.middleware.ExampleService #half_proofs 0
scalar World.node[236].appl.middleware.ExampleService #failed_proofs 1
scalar World.node[236].appl.middleware.ExampleService #loc_proof_send 3
scalar World.node[236].nic.phy80211p busyTime 0.00022804444444445
scalar World.node[236].nic.mac1609_4 ReceivedUnicastPackets 0
scalar World.node[236].nic.mac1609_4 ReceivedBroadcasts 246
scalar World.node[236].nic.mac1609_4 SentPackets 407
scalar World.node[236].nic.mac1609_4 SentAcknowledgements 0
scalar World.node[236].nic.mac1609_4 SNIRLostPackets 5
scalar World.node[236].nic.mac1609_4 RXTXLostPackets 0
scalar World.node[236].nic.mac1609_4 TotalLostPackets 5
scalar World.node[236].nic.mac1609_4 DroppedPacketsInMac 0
scalar World.node[236].nic.mac1609_4 TooLittleTime 0
scalar World.node[236].nic.mac1609_4 TimesIntoBackoff 407
scalar World.node[236].nic.mac1609_4 SlotsBackoff 2913
scalar World.node[236].nic.mac1609_4 NumInternalContention 0
scalar World.node[236].nic.mac1609_4 totalBusyTime 0.108103
scalar World.node[239].appl.middleware.CaService #cam_sent 412
scalar World.node[239].appl.middleware.ExampleService #full_proofs 0
scalar World.node[239].appl.middleware.ExampleService #half_proofs 2
scalar World.node[239].appl.middleware.ExampleService #failed_proofs 0
scalar World.node[239].appl.middleware.ExampleService #loc_proof_send 7
scalar World.node[239].nic.phy80211p busyTime 0.0006073488372093
scalar World.node[239].nic.mac1609_4 ReceivedUnicastPackets 0
scalar World.node[239].nic.mac1609_4 ReceivedBroadcasts 634
scalar World.node[239].nic.mac1609_4 SentPackets 419
scalar World.node[239].nic.mac1609_4 SentAcknowledgements 0
scalar World.node[239].nic.mac1609_4 SNIRLostPackets 7
scalar World.node[239].nic.mac1609_4 RXTXLostPackets 4
scalar World.node[239].nic.mac1609_4 TotalLostPackets 11
scalar World.node[239].nic.mac1609_4 DroppedPacketsInMac 0
scalar World.node[239].nic.mac1609_4 TooLittleTime 0
scalar World.node[239].nic.mac1609_4 TimesIntoBackoff 419
scalar World.node[239].nic.mac1609_4 SlotsBackoff 3186
scalar World.node[239].nic.mac1609_4 NumInternalContention 0
scalar World.node[239].nic.mac1609_4 totalBusyTime 0.172971014728
scalar World.node[240].appl.middleware.CaService #cam_sent 436
scalar World.node[240].appl.middleware.ExampleService #full_proofs 1
scalar World.node[240].appl.middleware.ExampleService #half_proofs 0
scalar World.node[240].appl.middleware.ExampleService #failed_proofs 0
scalar World.node[240].appl.middleware.ExampleService #loc_proof_send 4
scalar World.node[240].nic.phy80211p busyTime 0.00034337724550898
scalar World.node[240].nic.mac1609_4 ReceivedUnicastPackets 0
scalar World.node[240].nic.mac1609_4 ReceivedBroadcasts 350
scalar World.node[240].nic.mac1609_4 SentPackets 440
scalar World.node[240].nic.mac1609_4 SentAcknowledgements 0
scalar World.node[240].nic.mac1609_4 SNIRLostPackets 2
scalar World.node[240].nic.mac1609_4 RXTXLostPackets 4
scalar World.node[240].nic.mac1609_4 TotalLostPackets 6
scalar World.node[240].nic.mac1609_4 DroppedPacketsInMac 0
scalar World.node[240].nic.mac1609_4 TooLittleTime 0
scalar World.node[240].nic.mac1609_4 TimesIntoBackoff 440
scalar World.node[240].nic.mac1609_4 SlotsBackoff 3157
scalar World.node[240].nic.mac1609_4 NumInternalContention 0
scalar World.node[240].nic.mac1609_4 totalBusyTime 0.129608

