version 2
run Obstacles_Night-1-20191117-11:13:37-5434
attr configname Obstacles_Night
attr datetime 20191117-11:13:37
attr experiment Obstacles_Night
attr inifile omnetpp.ini
attr iterationvars $0=40
attr iterationvarsf 40-
attr measurement $0=40
attr network artery.veins.World
attr processid 5434
attr repetition 0
attr replication #0
attr resultdir results
attr runnumber 1
attr seedset 1
param *.traci.launcher.sumocfg "\"Obstacles_Night/run.sumo.cfg\""
param *.withObstacles true
param *.obstacles.obstacles "xmldoc(\"config_obstacles.xml\", \"//AnalogueModel[@type='SimpleObstacleShadowing']/obstacles\")"
param *.node[*].nic.mac1609_4.txPower 20mW
param *.node[*].nic.phy80211p.decider "xmldoc(\"config_obstacles.xml\")"
param *.node[*].nic.phy80211p.analogueModels "xmldoc(\"config_obstacles.xml\")"
param *.node[*].applType "\"artery.veins.ApplicationLayer\""
param *.node[*].appl.middleware.updateInterval 0.1s
param *.node[*].appl.middleware.datetime "\"2013-06-01 12:35:00\""
param *.node[*].appl.middleware.services "xmldoc(\"services.xml\")"
param *.node[*].appl.middleware.ExampleService.DecisionLogic 40
param *.node[*].appl.middleware.ExampleService.NeighboringWindow 60
param *.traci.core.version -1
param *.traci.launcher.typename "\"PosixLauncher\""
param *.playgroundSizeX 4000m
param *.playgroundSizeY 4000m
param *.playgroundSizeZ 50m
param *.connectionManager.maxInterfDist 1500m
param *.connectionManager.sendDirect true
param *.connectionManager.coreDebug false

scalar World.node[5].appl.middleware.CaService #cam_sent 158
scalar World.node[5].appl.middleware.ExampleService #full_proofs 0
scalar World.node[5].appl.middleware.ExampleService #half_proofs 0
scalar World.node[5].appl.middleware.ExampleService #failed_proofs 0
scalar World.node[5].appl.middleware.ExampleService #loc_proof_send 0
scalar World.node[5].nic.phy80211p busyTime 0.00016051063829787
scalar World.node[5].nic.mac1609_4 ReceivedUnicastPackets 0
scalar World.node[5].nic.mac1609_4 ReceivedBroadcasts 39
scalar World.node[5].nic.mac1609_4 SentPackets 158
scalar World.node[5].nic.mac1609_4 SentAcknowledgements 0
scalar World.node[5].nic.mac1609_4 SNIRLostPackets 7
scalar World.node[5].nic.mac1609_4 RXTXLostPackets 0
scalar World.node[5].nic.mac1609_4 TotalLostPackets 7
scalar World.node[5].nic.mac1609_4 DroppedPacketsInMac 0
scalar World.node[5].nic.mac1609_4 TooLittleTime 0
scalar World.node[5].nic.mac1609_4 TimesIntoBackoff 158
scalar World.node[5].nic.mac1609_4 SlotsBackoff 1139
scalar World.node[5].nic.mac1609_4 NumInternalContention 0
scalar World.node[5].nic.mac1609_4 totalBusyTime 0.033494
scalar World.node[3].appl.middleware.CaService #cam_sent 310
scalar World.node[3].appl.middleware.ExampleService #full_proofs 1
scalar World.node[3].appl.middleware.ExampleService #half_proofs 0
scalar World.node[3].appl.middleware.ExampleService #failed_proofs 0
scalar World.node[3].appl.middleware.ExampleService #loc_proof_send 2
scalar World.node[3].nic.phy80211p busyTime 0.000334592
scalar World.node[3].nic.mac1609_4 ReceivedUnicastPackets 0
scalar World.node[3].nic.mac1609_4 ReceivedBroadcasts 251
scalar World.node[3].nic.mac1609_4 SentPackets 312
scalar World.node[3].nic.mac1609_4 SentAcknowledgements 0
scalar World.node[3].nic.mac1609_4 SNIRLostPackets 6
scalar World.node[3].nic.mac1609_4 RXTXLostPackets 0
scalar World.node[3].nic.mac1609_4 TotalLostPackets 6
scalar World.node[3].nic.mac1609_4 DroppedPacketsInMac 0
scalar World.node[3].nic.mac1609_4 TooLittleTime 0
scalar World.node[3].nic.mac1609_4 TimesIntoBackoff 312
scalar World.node[3].nic.mac1609_4 SlotsBackoff 2420
scalar World.node[3].nic.mac1609_4 NumInternalContention 0
scalar World.node[3].nic.mac1609_4 totalBusyTime 0.09316
scalar World.node[4].appl.middleware.CaService #cam_sent 355
scalar World.node[4].appl.middleware.ExampleService #full_proofs 0
scalar World.node[4].appl.middleware.ExampleService #half_proofs 1
scalar World.node[4].appl.middleware.ExampleService #failed_proofs 1
scalar World.node[4].appl.middleware.ExampleService #loc_proof_send 6
scalar World.node[4].nic.phy80211p busyTime 0.00069731034482759
scalar World.node[4].nic.mac1609_4 ReceivedUnicastPackets 0
scalar World.node[4].nic.mac1609_4 ReceivedBroadcasts 477
scalar World.node[4].nic.mac1609_4 SentPackets 361
scalar World.node[4].nic.mac1609_4 SentAcknowledgements 0
scalar World.node[4].nic.mac1609_4 SNIRLostPackets 20
scalar World.node[4].nic.mac1609_4 RXTXLostPackets 2
scalar World.node[4].nic.mac1609_4 TotalLostPackets 22
scalar World.node[4].nic.mac1609_4 DroppedPacketsInMac 0
scalar World.node[4].nic.mac1609_4 TooLittleTime 0
scalar World.node[4].nic.mac1609_4 TimesIntoBackoff 362
scalar World.node[4].nic.mac1609_4 SlotsBackoff 2586
scalar World.node[4].nic.mac1609_4 NumInternalContention 0
scalar World.node[4].nic.mac1609_4 totalBusyTime 0.139777
scalar World.node[7].appl.middleware.CaService #cam_sent 268
scalar World.node[7].appl.middleware.ExampleService #full_proofs 0
scalar World.node[7].appl.middleware.ExampleService #half_proofs 0
scalar World.node[7].appl.middleware.ExampleService #failed_proofs 1
scalar World.node[7].appl.middleware.ExampleService #loc_proof_send 2
scalar World.node[7].nic.phy80211p busyTime 0.00048419512195122
scalar World.node[7].nic.mac1609_4 ReceivedUnicastPackets 0
scalar World.node[7].nic.mac1609_4 ReceivedBroadcasts 222
scalar World.node[7].nic.mac1609_4 SentPackets 270
scalar World.node[7].nic.mac1609_4 SentAcknowledgements 0
scalar World.node[7].nic.mac1609_4 SNIRLostPackets 22
scalar World.node[7].nic.mac1609_4 RXTXLostPackets 0
scalar World.node[7].nic.mac1609_4 TotalLostPackets 22
scalar World.node[7].nic.mac1609_4 DroppedPacketsInMac 0
scalar World.node[7].nic.mac1609_4 TooLittleTime 0
scalar World.node[7].nic.mac1609_4 TimesIntoBackoff 270
scalar World.node[7].nic.mac1609_4 SlotsBackoff 2099
scalar World.node[7].nic.mac1609_4 NumInternalContention 0
scalar World.node[7].nic.mac1609_4 totalBusyTime 0.08363
scalar World.node[1].appl.middleware.CaService #cam_sent 547
scalar World.node[1].appl.middleware.ExampleService #full_proofs 0
scalar World.node[1].appl.middleware.ExampleService #half_proofs 1
scalar World.node[1].appl.middleware.ExampleService #failed_proofs 1
scalar World.node[1].appl.middleware.ExampleService #loc_proof_send 7
scalar World.node[1].nic.phy80211p busyTime 0.00073347826086956
scalar World.node[1].nic.mac1609_4 ReceivedUnicastPackets 0
scalar World.node[1].nic.mac1609_4 ReceivedBroadcasts 781
scalar World.node[1].nic.mac1609_4 SentPackets 554
scalar World.node[1].nic.mac1609_4 SentAcknowledgements 0
scalar World.node[1].nic.mac1609_4 SNIRLostPackets 49
scalar World.node[1].nic.mac1609_4 RXTXLostPackets 5
scalar World.node[1].nic.mac1609_4 TotalLostPackets 54
scalar World.node[1].nic.mac1609_4 DroppedPacketsInMac 0
scalar World.node[1].nic.mac1609_4 TooLittleTime 0
scalar World.node[1].nic.mac1609_4 TimesIntoBackoff 554
scalar World.node[1].nic.mac1609_4 SlotsBackoff 4132
scalar World.node[1].nic.mac1609_4 NumInternalContention 0
scalar World.node[1].nic.mac1609_4 totalBusyTime 0.224874
scalar World.node[2].appl.middleware.CaService #cam_sent 581
scalar World.node[2].appl.middleware.ExampleService #full_proofs 2
scalar World.node[2].appl.middleware.ExampleService #half_proofs 1
scalar World.node[2].appl.middleware.ExampleService #failed_proofs 0
scalar World.node[2].appl.middleware.ExampleService #loc_proof_send 11
scalar World.node[2].nic.phy80211p busyTime 0.0007485871559633
scalar World.node[2].nic.mac1609_4 ReceivedUnicastPackets 0
scalar World.node[2].nic.mac1609_4 ReceivedBroadcasts 956
scalar World.node[2].nic.mac1609_4 SentPackets 592
scalar World.node[2].nic.mac1609_4 SentAcknowledgements 0
scalar World.node[2].nic.mac1609_4 SNIRLostPackets 46
scalar World.node[2].nic.mac1609_4 RXTXLostPackets 10
scalar World.node[2].nic.mac1609_4 TotalLostPackets 56
scalar World.node[2].nic.mac1609_4 DroppedPacketsInMac 0
scalar World.node[2].nic.mac1609_4 TooLittleTime 0
scalar World.node[2].nic.mac1609_4 TimesIntoBackoff 593
scalar World.node[2].nic.mac1609_4 SlotsBackoff 4462
scalar World.node[2].nic.mac1609_4 NumInternalContention 0
scalar World.node[2].nic.mac1609_4 totalBusyTime 0.259168105553
scalar World.node[6].appl.middleware.CaService #cam_sent 419
scalar World.node[6].appl.middleware.ExampleService #full_proofs 1
scalar World.node[6].appl.middleware.ExampleService #half_proofs 1
scalar World.node[6].appl.middleware.ExampleService #failed_proofs 1
scalar World.node[6].appl.middleware.ExampleService #loc_proof_send 10
scalar World.node[6].nic.phy80211p busyTime 0.00089503448275862
scalar World.node[6].nic.mac1609_4 ReceivedUnicastPackets 0
scalar World.node[6].nic.mac1609_4 ReceivedBroadcasts 889
scalar World.node[6].nic.mac1609_4 SentPackets 429
scalar World.node[6].nic.mac1609_4 SentAcknowledgements 0
scalar World.node[6].nic.mac1609_4 SNIRLostPackets 67
scalar World.node[6].nic.mac1609_4 RXTXLostPackets 11
scalar World.node[6].nic.mac1609_4 TotalLostPackets 78
scalar World.node[6].nic.mac1609_4 DroppedPacketsInMac 0
scalar World.node[6].nic.mac1609_4 TooLittleTime 0
scalar World.node[6].nic.mac1609_4 TimesIntoBackoff 430
scalar World.node[6].nic.mac1609_4 SlotsBackoff 3305
scalar World.node[6].nic.mac1609_4 NumInternalContention 0
scalar World.node[6].nic.mac1609_4 totalBusyTime 0.22523705004
scalar World.node[0].appl.middleware.CaService #cam_sent 632
scalar World.node[0].appl.middleware.ExampleService #full_proofs 2
scalar World.node[0].appl.middleware.ExampleService #half_proofs 0
scalar World.node[0].appl.middleware.ExampleService #failed_proofs 1
scalar World.node[0].appl.middleware.ExampleService #loc_proof_send 9
scalar World.node[0].nic.phy80211p busyTime 0.00035888446215139
scalar World.node[0].nic.mac1609_4 ReceivedUnicastPackets 0
scalar World.node[0].nic.mac1609_4 ReceivedBroadcasts 466
scalar World.node[0].nic.mac1609_4 SentPackets 641
scalar World.node[0].nic.mac1609_4 SentAcknowledgements 0
scalar World.node[0].nic.mac1609_4 SNIRLostPackets 88
scalar World.node[0].nic.mac1609_4 RXTXLostPackets 5
scalar World.node[0].nic.mac1609_4 TotalLostPackets 93
scalar World.node[0].nic.mac1609_4 DroppedPacketsInMac 0
scalar World.node[0].nic.mac1609_4 TooLittleTime 0
scalar World.node[0].nic.mac1609_4 TimesIntoBackoff 643
scalar World.node[0].nic.mac1609_4 SlotsBackoff 4714
scalar World.node[0].nic.mac1609_4 NumInternalContention 0
scalar World.node[0].nic.mac1609_4 totalBusyTime 0.195017022563
scalar World.node[13].appl.middleware.CaService #cam_sent 164
scalar World.node[13].appl.middleware.ExampleService #full_proofs 0
scalar World.node[13].appl.middleware.ExampleService #half_proofs 0
scalar World.node[13].appl.middleware.ExampleService #failed_proofs 0
scalar World.node[13].appl.middleware.ExampleService #loc_proof_send 0
scalar World.node[13].nic.phy80211p busyTime 0.00035395918367347
scalar World.node[13].nic.mac1609_4 ReceivedUnicastPackets 0
scalar World.node[13].nic.mac1609_4 ReceivedBroadcasts 103
scalar World.node[13].nic.mac1609_4 SentPackets 164
scalar World.node[13].nic.mac1609_4 SentAcknowledgements 0
scalar World.node[13].nic.mac1609_4 SNIRLostPackets 3
scalar World.node[13].nic.mac1609_4 RXTXLostPackets 0
scalar World.node[13].nic.mac1609_4 TotalLostPackets 3
scalar World.node[13].nic.mac1609_4 DroppedPacketsInMac 0
scalar World.node[13].nic.mac1609_4 TooLittleTime 0
scalar World.node[13].nic.mac1609_4 TimesIntoBackoff 164
scalar World.node[13].nic.mac1609_4 SlotsBackoff 1157
scalar World.node[13].nic.mac1609_4 NumInternalContention 0
scalar World.node[13].nic.mac1609_4 totalBusyTime 0.044276
scalar World.node[14].appl.middleware.CaService #cam_sent 168
scalar World.node[14].appl.middleware.ExampleService #full_proofs 1
scalar World.node[14].appl.middleware.ExampleService #half_proofs 0
scalar World.node[14].appl.middleware.ExampleService #failed_proofs 0
scalar World.node[14].appl.middleware.ExampleService #loc_proof_send 1
scalar World.node[14].nic.phy80211p busyTime 0.00073072
scalar World.node[14].nic.mac1609_4 ReceivedUnicastPackets 0
scalar World.node[14].nic.mac1609_4 ReceivedBroadcasts 182
scalar World.node[14].nic.mac1609_4 SentPackets 169
scalar World.node[14].nic.mac1609_4 SentAcknowledgements 0
scalar World.node[14].nic.mac1609_4 SNIRLostPackets 44
scalar World.node[14].nic.mac1609_4 RXTXLostPackets 0
scalar World.node[14].nic.mac1609_4 TotalLostPackets 44
scalar World.node[14].nic.mac1609_4 DroppedPacketsInMac 0
scalar World.node[14].nic.mac1609_4 TooLittleTime 0
scalar World.node[14].nic.mac1609_4 TimesIntoBackoff 169
scalar World.node[14].nic.mac1609_4 SlotsBackoff 1418
scalar World.node[14].nic.mac1609_4 NumInternalContention 0
scalar World.node[14].nic.mac1609_4 totalBusyTime 0.064129
scalar World.node[8].appl.middleware.CaService #cam_sent 482
scalar World.node[8].appl.middleware.ExampleService #full_proofs 1
scalar World.node[8].appl.middleware.ExampleService #half_proofs 1
scalar World.node[8].appl.middleware.ExampleService #failed_proofs 0
scalar World.node[8].appl.middleware.ExampleService #loc_proof_send 10
scalar World.node[8].nic.phy80211p busyTime 0.00083463687150837
scalar World.node[8].nic.mac1609_4 ReceivedUnicastPackets 0
scalar World.node[8].nic.mac1609_4 ReceivedBroadcasts 839
scalar World.node[8].nic.mac1609_4 SentPackets 492
scalar World.node[8].nic.mac1609_4 SentAcknowledgements 0
scalar World.node[8].nic.mac1609_4 SNIRLostPackets 78
scalar World.node[8].nic.mac1609_4 RXTXLostPackets 16
scalar World.node[8].nic.mac1609_4 TotalLostPackets 94
scalar World.node[8].nic.mac1609_4 DroppedPacketsInMac 0
scalar World.node[8].nic.mac1609_4 TooLittleTime 0
scalar World.node[8].nic.mac1609_4 TimesIntoBackoff 493
scalar World.node[8].nic.mac1609_4 SlotsBackoff 3698
scalar World.node[8].nic.mac1609_4 NumInternalContention 0
scalar World.node[8].nic.mac1609_4 totalBusyTime 0.229612325438
scalar World.node[17].appl.middleware.CaService #cam_sent 118
scalar World.node[17].appl.middleware.ExampleService #full_proofs 1
scalar World.node[17].appl.middleware.ExampleService #half_proofs 0
scalar World.node[17].appl.middleware.ExampleService #failed_proofs 0
scalar World.node[17].appl.middleware.ExampleService #loc_proof_send 2
scalar World.node[17].nic.phy80211p busyTime 0.00096
scalar World.node[17].nic.mac1609_4 ReceivedUnicastPackets 0
scalar World.node[17].nic.mac1609_4 ReceivedBroadcasts 209
scalar World.node[17].nic.mac1609_4 SentPackets 120
scalar World.node[17].nic.mac1609_4 SentAcknowledgements 0
scalar World.node[17].nic.mac1609_4 SNIRLostPackets 39
scalar World.node[17].nic.mac1609_4 RXTXLostPackets 0
scalar World.node[17].nic.mac1609_4 TotalLostPackets 39
scalar World.node[17].nic.mac1609_4 DroppedPacketsInMac 0
scalar World.node[17].nic.mac1609_4 TooLittleTime 0
scalar World.node[17].nic.mac1609_4 TimesIntoBackoff 120
scalar World.node[17].nic.mac1609_4 SlotsBackoff 770
scalar World.node[17].nic.mac1609_4 NumInternalContention 0
scalar World.node[17].nic.mac1609_4 totalBusyTime 0.05996
scalar World.node[10].appl.middleware.CaService #cam_sent 483
scalar World.node[10].appl.middleware.ExampleService #full_proofs 1
scalar World.node[10].appl.middleware.ExampleService #half_proofs 0
scalar World.node[10].appl.middleware.ExampleService #failed_proofs 2
scalar World.node[10].appl.middleware.ExampleService #loc_proof_send 10
scalar World.node[10].nic.phy80211p busyTime 0.00058153086419753
scalar World.node[10].nic.mac1609_4 ReceivedUnicastPackets 0
scalar World.node[10].nic.mac1609_4 ReceivedBroadcasts 484
scalar World.node[10].nic.mac1609_4 SentPackets 493
scalar World.node[10].nic.mac1609_4 SentAcknowledgements 0
scalar World.node[10].nic.mac1609_4 SNIRLostPackets 95
scalar World.node[10].nic.mac1609_4 RXTXLostPackets 10
scalar World.node[10].nic.mac1609_4 TotalLostPackets 105
scalar World.node[10].nic.mac1609_4 DroppedPacketsInMac 0
scalar World.node[10].nic.mac1609_4 TooLittleTime 0
scalar World.node[10].nic.mac1609_4 TimesIntoBackoff 493
scalar World.node[10].nic.mac1609_4 SlotsBackoff 3640
scalar World.node[10].nic.mac1609_4 NumInternalContention 0
scalar World.node[10].nic.mac1609_4 totalBusyTime 0.174173
scalar World.node[12].appl.middleware.CaService #cam_sent 453
scalar World.node[12].appl.middleware.ExampleService #full_proofs 1
scalar World.node[12].appl.middleware.ExampleService #half_proofs 0
scalar World.node[12].appl.middleware.ExampleService #failed_proofs 0
scalar World.node[12].appl.middleware.ExampleService #loc_proof_send 3
scalar World.node[12].nic.phy80211p busyTime 0.00039548466257669
scalar World.node[12].nic.mac1609_4 ReceivedUnicastPackets 0
scalar World.node[12].nic.mac1609_4 ReceivedBroadcasts 366
scalar World.node[12].nic.mac1609_4 SentPackets 456
scalar World.node[12].nic.mac1609_4 SentAcknowledgements 0
scalar World.node[12].nic.mac1609_4 SNIRLostPackets 31
scalar World.node[12].nic.mac1609_4 RXTXLostPackets 0
scalar World.node[12].nic.mac1609_4 TotalLostPackets 31
scalar World.node[12].nic.mac1609_4 DroppedPacketsInMac 0
scalar World.node[12].nic.mac1609_4 TooLittleTime 0
scalar World.node[12].nic.mac1609_4 TimesIntoBackoff 456
scalar World.node[12].nic.mac1609_4 SlotsBackoff 3434
scalar World.node[12].nic.mac1609_4 NumInternalContention 0
scalar World.node[12].nic.mac1609_4 totalBusyTime 0.139144
scalar World.node[15].appl.middleware.CaService #cam_sent 394
scalar World.node[15].appl.middleware.ExampleService #full_proofs 1
scalar World.node[15].appl.middleware.ExampleService #half_proofs 1
scalar World.node[15].appl.middleware.ExampleService #failed_proofs 0
scalar World.node[15].appl.middleware.ExampleService #loc_proof_send 7
scalar World.node[15].nic.phy80211p busyTime 0.00075389830508474
scalar World.node[15].nic.mac1609_4 ReceivedUnicastPackets 0
scalar World.node[15].nic.mac1609_4 ReceivedBroadcasts 523
scalar World.node[15].nic.mac1609_4 SentPackets 401
scalar World.node[15].nic.mac1609_4 SentAcknowledgements 0
scalar World.node[15].nic.mac1609_4 SNIRLostPackets 24
scalar World.node[15].nic.mac1609_4 RXTXLostPackets 2
scalar World.node[15].nic.mac1609_4 TotalLostPackets 26
scalar World.node[15].nic.mac1609_4 DroppedPacketsInMac 0
scalar World.node[15].nic.mac1609_4 TooLittleTime 0
scalar World.node[15].nic.mac1609_4 TimesIntoBackoff 401
scalar World.node[15].nic.mac1609_4 SlotsBackoff 3159
scalar World.node[15].nic.mac1609_4 NumInternalContention 0
scalar World.node[15].nic.mac1609_4 totalBusyTime 0.154289
scalar World.node[9].appl.middleware.CaService #cam_sent 711
scalar World.node[9].appl.middleware.ExampleService #full_proofs 2
scalar World.node[9].appl.middleware.ExampleService #half_proofs 2
scalar World.node[9].appl.middleware.ExampleService #failed_proofs 0
scalar World.node[9].appl.middleware.ExampleService #loc_proof_send 15
scalar World.node[9].nic.phy80211p busyTime 0.00080019858156028
scalar World.node[9].nic.mac1609_4 ReceivedUnicastPackets 0
scalar World.node[9].nic.mac1609_4 ReceivedBroadcasts 1322
scalar World.node[9].nic.mac1609_4 SentPackets 726
scalar World.node[9].nic.mac1609_4 SentAcknowledgements 0
scalar World.node[9].nic.mac1609_4 SNIRLostPackets 63
scalar World.node[9].nic.mac1609_4 RXTXLostPackets 18
scalar World.node[9].nic.mac1609_4 TotalLostPackets 81
scalar World.node[9].nic.mac1609_4 DroppedPacketsInMac 0
scalar World.node[9].nic.mac1609_4 TooLittleTime 0
scalar World.node[9].nic.mac1609_4 TimesIntoBackoff 726
scalar World.node[9].nic.mac1609_4 SlotsBackoff 5390
scalar World.node[9].nic.mac1609_4 NumInternalContention 0
scalar World.node[9].nic.mac1609_4 totalBusyTime 0.34376603645
scalar World.node[23].appl.middleware.CaService #cam_sent 102
scalar World.node[23].appl.middleware.ExampleService #full_proofs 1
scalar World.node[23].appl.middleware.ExampleService #half_proofs 0
scalar World.node[23].appl.middleware.ExampleService #failed_proofs 0
scalar World.node[23].appl.middleware.ExampleService #loc_proof_send 1
scalar World.node[23].nic.phy80211p busyTime 0.00050933333333333
scalar World.node[23].nic.mac1609_4 ReceivedUnicastPackets 0
scalar World.node[23].nic.mac1609_4 ReceivedBroadcasts 93
scalar World.node[23].nic.mac1609_4 SentPackets 103
scalar World.node[23].nic.mac1609_4 SentAcknowledgements 0
scalar World.node[23].nic.mac1609_4 SNIRLostPackets 1
scalar World.node[23].nic.mac1609_4 RXTXLostPackets 0
scalar World.node[23].nic.mac1609_4 TotalLostPackets 1
scalar World.node[23].nic.mac1609_4 DroppedPacketsInMac 0
scalar World.node[23].nic.mac1609_4 TooLittleTime 0
scalar World.node[23].nic.mac1609_4 TimesIntoBackoff 103
scalar World.node[23].nic.mac1609_4 SlotsBackoff 839
scalar World.node[23].nic.mac1609_4 NumInternalContention 0
scalar World.node[23].nic.mac1609_4 totalBusyTime 0.032127
scalar World.node[20].appl.middleware.CaService #cam_sent 318
scalar World.node[20].appl.middleware.ExampleService #full_proofs 1
scalar World.node[20].appl.middleware.ExampleService #half_proofs 0
scalar World.node[20].appl.middleware.ExampleService #failed_proofs 0
scalar World.node[20].appl.middleware.ExampleService #loc_proof_send 3
scalar World.node[20].nic.phy80211p busyTime 0.00032463157894737
scalar World.node[20].nic.mac1609_4 ReceivedUnicastPackets 0
scalar World.node[20].nic.mac1609_4 ReceivedBroadcasts 179
scalar World.node[20].nic.mac1609_4 SentPackets 321
scalar World.node[20].nic.mac1609_4 SentAcknowledgements 0
scalar World.node[20].nic.mac1609_4 SNIRLostPackets 11
scalar World.node[20].nic.mac1609_4 RXTXLostPackets 0
scalar World.node[20].nic.mac1609_4 TotalLostPackets 11
scalar World.node[20].nic.mac1609_4 DroppedPacketsInMac 0
scalar World.node[20].nic.mac1609_4 TooLittleTime 0
scalar World.node[20].nic.mac1609_4 TimesIntoBackoff 321
scalar World.node[20].nic.mac1609_4 SlotsBackoff 2627
scalar World.node[20].nic.mac1609_4 NumInternalContention 0
scalar World.node[20].nic.mac1609_4 totalBusyTime 0.083377
scalar World.node[19].appl.middleware.CaService #cam_sent 382
scalar World.node[19].appl.middleware.ExampleService #full_proofs 2
scalar World.node[19].appl.middleware.ExampleService #half_proofs 0
scalar World.node[19].appl.middleware.ExampleService #failed_proofs 0
scalar World.node[19].appl.middleware.ExampleService #loc_proof_send 6
scalar World.node[19].nic.phy80211p busyTime 0.00096650406504065
scalar World.node[19].nic.mac1609_4 ReceivedUnicastPackets 0
scalar World.node[19].nic.mac1609_4 ReceivedBroadcasts 700
scalar World.node[19].nic.mac1609_4 SentPackets 388
scalar World.node[19].nic.mac1609_4 SentAcknowledgements 0
scalar World.node[19].nic.mac1609_4 SNIRLostPackets 31
scalar World.node[19].nic.mac1609_4 RXTXLostPackets 3
scalar World.node[19].nic.mac1609_4 TotalLostPackets 34
scalar World.node[19].nic.mac1609_4 DroppedPacketsInMac 0
scalar World.node[19].nic.mac1609_4 TooLittleTime 0
scalar World.node[19].nic.mac1609_4 TimesIntoBackoff 389
scalar World.node[19].nic.mac1609_4 SlotsBackoff 2789
scalar World.node[19].nic.mac1609_4 NumInternalContention 0
scalar World.node[19].nic.mac1609_4 totalBusyTime 0.182188198562
scalar World.node[18].appl.middleware.CaService #cam_sent 514
scalar World.node[18].appl.middleware.ExampleService #full_proofs 1
scalar World.node[18].appl.middleware.ExampleService #half_proofs 1
scalar World.node[18].appl.middleware.ExampleService #failed_proofs 0
scalar World.node[18].appl.middleware.ExampleService #loc_proof_send 8
scalar World.node[18].nic.phy80211p busyTime 0.00074570414201183
scalar World.node[18].nic.mac1609_4 ReceivedUnicastPackets 0
scalar World.node[18].nic.mac1609_4 ReceivedBroadcasts 721
scalar World.node[18].nic.mac1609_4 SentPackets 522
scalar World.node[18].nic.mac1609_4 SentAcknowledgements 0
scalar World.node[18].nic.mac1609_4 SNIRLostPackets 53
scalar World.node[18].nic.mac1609_4 RXTXLostPackets 0
scalar World.node[18].nic.mac1609_4 TotalLostPackets 53
scalar World.node[18].nic.mac1609_4 DroppedPacketsInMac 0
scalar World.node[18].nic.mac1609_4 TooLittleTime 0
scalar World.node[18].nic.mac1609_4 TimesIntoBackoff 522
scalar World.node[18].nic.mac1609_4 SlotsBackoff 3694
scalar World.node[18].nic.mac1609_4 NumInternalContention 0
scalar World.node[18].nic.mac1609_4 totalBusyTime 0.211154
scalar World.node[16].appl.middleware.CaService #cam_sent 502
scalar World.node[16].appl.middleware.ExampleService #full_proofs 2
scalar World.node[16].appl.middleware.ExampleService #half_proofs 1
scalar World.node[16].appl.middleware.ExampleService #failed_proofs 0
scalar World.node[16].appl.middleware.ExampleService #loc_proof_send 7
scalar World.node[16].nic.phy80211p busyTime 0.00074782608695652
scalar World.node[16].nic.mac1609_4 ReceivedUnicastPackets 0
scalar World.node[16].nic.mac1609_4 ReceivedBroadcasts 899
scalar World.node[16].nic.mac1609_4 SentPackets 509
scalar World.node[16].nic.mac1609_4 SentAcknowledgements 0
scalar World.node[16].nic.mac1609_4 SNIRLostPackets 52
scalar World.node[16].nic.mac1609_4 RXTXLostPackets 3
scalar World.node[16].nic.mac1609_4 TotalLostPackets 55
scalar World.node[16].nic.mac1609_4 DroppedPacketsInMac 0
scalar World.node[16].nic.mac1609_4 TooLittleTime 0
scalar World.node[16].nic.mac1609_4 TimesIntoBackoff 509
scalar World.node[16].nic.mac1609_4 SlotsBackoff 3790
scalar World.node[16].nic.mac1609_4 NumInternalContention 0
scalar World.node[16].nic.mac1609_4 totalBusyTime 0.238253
scalar World.node[11].appl.middleware.CaService #cam_sent 905
scalar World.node[11].appl.middleware.ExampleService #full_proofs 1
scalar World.node[11].appl.middleware.ExampleService #half_proofs 2
scalar World.node[11].appl.middleware.ExampleService #failed_proofs 0
scalar World.node[11].appl.middleware.ExampleService #loc_proof_send 10
scalar World.node[11].nic.phy80211p busyTime 0.00058243731778425
scalar World.node[11].nic.mac1609_4 ReceivedUnicastPackets 0
scalar World.node[11].nic.mac1609_4 ReceivedBroadcasts 1148
scalar World.node[11].nic.mac1609_4 SentPackets 915
scalar World.node[11].nic.mac1609_4 SentAcknowledgements 0
scalar World.node[11].nic.mac1609_4 SNIRLostPackets 80
scalar World.node[11].nic.mac1609_4 RXTXLostPackets 6
scalar World.node[11].nic.mac1609_4 TotalLostPackets 86
scalar World.node[11].nic.mac1609_4 DroppedPacketsInMac 0
scalar World.node[11].nic.mac1609_4 TooLittleTime 0
scalar World.node[11].nic.mac1609_4 TimesIntoBackoff 916
scalar World.node[11].nic.mac1609_4 SlotsBackoff 6891
scalar World.node[11].nic.mac1609_4 NumInternalContention 0
scalar World.node[11].nic.mac1609_4 totalBusyTime 0.349515124164
scalar World.node[26].appl.middleware.CaService #cam_sent 268
scalar World.node[26].appl.middleware.ExampleService #full_proofs 0
scalar World.node[26].appl.middleware.ExampleService #half_proofs 1
scalar World.node[26].appl.middleware.ExampleService #failed_proofs 0
scalar World.node[26].appl.middleware.ExampleService #loc_proof_send 5
scalar World.node[26].nic.phy80211p busyTime 0.0012326436781609
scalar World.node[26].nic.mac1609_4 ReceivedUnicastPackets 0
scalar World.node[26].nic.mac1609_4 ReceivedBroadcasts 617
scalar World.node[26].nic.mac1609_4 SentPackets 273
scalar World.node[26].nic.mac1609_4 SentAcknowledgements 0
scalar World.node[26].nic.mac1609_4 SNIRLostPackets 43
scalar World.node[26].nic.mac1609_4 RXTXLostPackets 6
scalar World.node[26].nic.mac1609_4 TotalLostPackets 49
scalar World.node[26].nic.mac1609_4 DroppedPacketsInMac 0
scalar World.node[26].nic.mac1609_4 TooLittleTime 0
scalar World.node[26].nic.mac1609_4 TimesIntoBackoff 273
scalar World.node[26].nic.mac1609_4 SlotsBackoff 2113
scalar World.node[26].nic.mac1609_4 NumInternalContention 0
scalar World.node[26].nic.mac1609_4 totalBusyTime 0.151561033092
scalar World.node[22].appl.middleware.CaService #cam_sent 522
scalar World.node[22].appl.middleware.ExampleService #full_proofs 2
scalar World.node[22].appl.middleware.ExampleService #half_proofs 1
scalar World.node[22].appl.middleware.ExampleService #failed_proofs 0
scalar World.node[22].appl.middleware.ExampleService #loc_proof_send 10
scalar World.node[22].nic.phy80211p busyTime 0.00094181005586591
scalar World.node[22].nic.mac1609_4 ReceivedUnicastPackets 0
scalar World.node[22].nic.mac1609_4 ReceivedBroadcasts 989
scalar World.node[22].nic.mac1609_4 SentPackets 532
scalar World.node[22].nic.mac1609_4 SentAcknowledgements 0
scalar World.node[22].nic.mac1609_4 SNIRLostPackets 49
scalar World.node[22].nic.mac1609_4 RXTXLostPackets 2
scalar World.node[22].nic.mac1609_4 TotalLostPackets 51
scalar World.node[22].nic.mac1609_4 DroppedPacketsInMac 0
scalar World.node[22].nic.mac1609_4 TooLittleTime 0
scalar World.node[22].nic.mac1609_4 TimesIntoBackoff 534
scalar World.node[22].nic.mac1609_4 SlotsBackoff 4100
scalar World.node[22].nic.mac1609_4 NumInternalContention 0
scalar World.node[22].nic.mac1609_4 totalBusyTime 0.255132016289
scalar World.node[24].appl.middleware.CaService #cam_sent 551
scalar World.node[24].appl.middleware.ExampleService #full_proofs 0
scalar World.node[24].appl.middleware.ExampleService #half_proofs 2
scalar World.node[24].appl.middleware.ExampleService #failed_proofs 0
scalar World.node[24].appl.middleware.ExampleService #loc_proof_send 7
scalar World.node[24].nic.phy80211p busyTime 0.0007503908045977
scalar World.node[24].nic.mac1609_4 ReceivedUnicastPackets 0
scalar World.node[24].nic.mac1609_4 ReceivedBroadcasts 742
scalar World.node[24].nic.mac1609_4 SentPackets 558
scalar World.node[24].nic.mac1609_4 SentAcknowledgements 0
scalar World.node[24].nic.mac1609_4 SNIRLostPackets 62
scalar World.node[24].nic.mac1609_4 RXTXLostPackets 4
scalar World.node[24].nic.mac1609_4 TotalLostPackets 66
scalar World.node[24].nic.mac1609_4 DroppedPacketsInMac 0
scalar World.node[24].nic.mac1609_4 TooLittleTime 0
scalar World.node[24].nic.mac1609_4 TimesIntoBackoff 559
scalar World.node[24].nic.mac1609_4 SlotsBackoff 4133
scalar World.node[24].nic.mac1609_4 NumInternalContention 0
scalar World.node[24].nic.mac1609_4 totalBusyTime 0.221638
scalar World.node[21].appl.middleware.CaService #cam_sent 637
scalar World.node[21].appl.middleware.ExampleService #full_proofs 1
scalar World.node[21].appl.middleware.ExampleService #half_proofs 0
scalar World.node[21].appl.middleware.ExampleService #failed_proofs 1
scalar World.node[21].appl.middleware.ExampleService #loc_proof_send 11
scalar World.node[21].nic.phy80211p busyTime 0.00085037656903765
scalar World.node[21].nic.mac1609_4 ReceivedUnicastPackets 0
scalar World.node[21].nic.mac1609_4 ReceivedBroadcasts 1181
scalar World.node[21].nic.mac1609_4 SentPackets 648
scalar World.node[21].nic.mac1609_4 SentAcknowledgements 0
scalar World.node[21].nic.mac1609_4 SNIRLostPackets 70
scalar World.node[21].nic.mac1609_4 RXTXLostPackets 7
scalar World.node[21].nic.mac1609_4 TotalLostPackets 77
scalar World.node[21].nic.mac1609_4 DroppedPacketsInMac 0
scalar World.node[21].nic.mac1609_4 TooLittleTime 0
scalar World.node[21].nic.mac1609_4 TimesIntoBackoff 649
scalar World.node[21].nic.mac1609_4 SlotsBackoff 4784
scalar World.node[21].nic.mac1609_4 NumInternalContention 0
scalar World.node[21].nic.mac1609_4 totalBusyTime 0.308912
scalar World.node[25].appl.middleware.CaService #cam_sent 422
scalar World.node[25].appl.middleware.ExampleService #full_proofs 0
scalar World.node[25].appl.middleware.ExampleService #half_proofs 3
scalar World.node[25].appl.middleware.ExampleService #failed_proofs 0
scalar World.node[25].appl.middleware.ExampleService #loc_proof_send 8
scalar World.node[25].nic.phy80211p busyTime 0.00087661714285714
scalar World.node[25].nic.mac1609_4 ReceivedUnicastPackets 0
scalar World.node[25].nic.mac1609_4 ReceivedBroadcasts 913
scalar World.node[25].nic.mac1609_4 SentPackets 430
scalar World.node[25].nic.mac1609_4 SentAcknowledgements 0
scalar World.node[25].nic.mac1609_4 SNIRLostPackets 30
scalar World.node[25].nic.mac1609_4 RXTXLostPackets 1
scalar World.node[25].nic.mac1609_4 TotalLostPackets 31
scalar World.node[25].nic.mac1609_4 DroppedPacketsInMac 0
scalar World.node[25].nic.mac1609_4 TooLittleTime 0
scalar World.node[25].nic.mac1609_4 TimesIntoBackoff 430
scalar World.node[25].nic.mac1609_4 SlotsBackoff 3261
scalar World.node[25].nic.mac1609_4 NumInternalContention 0
scalar World.node[25].nic.mac1609_4 totalBusyTime 0.223766000073
scalar World.node[29].appl.middleware.CaService #cam_sent 486
scalar World.node[29].appl.middleware.ExampleService #full_proofs 1
scalar World.node[29].appl.middleware.ExampleService #half_proofs 2
scalar World.node[29].appl.middleware.ExampleService #failed_proofs 0
scalar World.node[29].appl.middleware.ExampleService #loc_proof_send 12
scalar World.node[29].nic.phy80211p busyTime 0.0012482871794872
scalar World.node[29].nic.mac1609_4 ReceivedUnicastPackets 0
scalar World.node[29].nic.mac1609_4 ReceivedBroadcasts 1437
scalar World.node[29].nic.mac1609_4 SentPackets 498
scalar World.node[29].nic.mac1609_4 SentAcknowledgements 0
scalar World.node[29].nic.mac1609_4 SNIRLostPackets 62
scalar World.node[29].nic.mac1609_4 RXTXLostPackets 11
scalar World.node[29].nic.mac1609_4 TotalLostPackets 73
scalar World.node[29].nic.mac1609_4 DroppedPacketsInMac 0
scalar World.node[29].nic.mac1609_4 TooLittleTime 0
scalar World.node[29].nic.mac1609_4 TimesIntoBackoff 498
scalar World.node[29].nic.mac1609_4 SlotsBackoff 3818
scalar World.node[29].nic.mac1609_4 NumInternalContention 0
scalar World.node[29].nic.mac1609_4 totalBusyTime 0.322258
scalar World.node[27].appl.middleware.CaService #cam_sent 594
scalar World.node[27].appl.middleware.ExampleService #full_proofs 3
scalar World.node[27].appl.middleware.ExampleService #half_proofs 1
scalar World.node[27].appl.middleware.ExampleService #failed_proofs 0
scalar World.node[27].appl.middleware.ExampleService #loc_proof_send 13
scalar World.node[27].nic.phy80211p busyTime 0.00098296234309622
scalar World.node[27].nic.mac1609_4 ReceivedUnicastPackets 0
scalar World.node[27].nic.mac1609_4 ReceivedBroadcasts 1382
scalar World.node[27].nic.mac1609_4 SentPackets 607
scalar World.node[27].nic.mac1609_4 SentAcknowledgements 0
scalar World.node[27].nic.mac1609_4 SNIRLostPackets 63
scalar World.node[27].nic.mac1609_4 RXTXLostPackets 10
scalar World.node[27].nic.mac1609_4 TotalLostPackets 73
scalar World.node[27].nic.mac1609_4 DroppedPacketsInMac 0
scalar World.node[27].nic.mac1609_4 TooLittleTime 0
scalar World.node[27].nic.mac1609_4 TimesIntoBackoff 607
scalar World.node[27].nic.mac1609_4 SlotsBackoff 4535
scalar World.node[27].nic.mac1609_4 NumInternalContention 0
scalar World.node[27].nic.mac1609_4 totalBusyTime 0.333935097868
scalar World.node[28].appl.middleware.CaService #cam_sent 609
scalar World.node[28].appl.middleware.ExampleService #full_proofs 0
scalar World.node[28].appl.middleware.ExampleService #half_proofs 3
scalar World.node[28].appl.middleware.ExampleService #failed_proofs 1
scalar World.node[28].appl.middleware.ExampleService #loc_proof_send 16
scalar World.node[28].nic.phy80211p busyTime 0.0013585043478261
scalar World.node[28].nic.mac1609_4 ReceivedUnicastPackets 0
scalar World.node[28].nic.mac1609_4 ReceivedBroadcasts 1853
scalar World.node[28].nic.mac1609_4 SentPackets 625
scalar World.node[28].nic.mac1609_4 SentAcknowledgements 0
scalar World.node[28].nic.mac1609_4 SNIRLostPackets 75
scalar World.node[28].nic.mac1609_4 RXTXLostPackets 20
scalar World.node[28].nic.mac1609_4 TotalLostPackets 95
scalar World.node[28].nic.mac1609_4 DroppedPacketsInMac 0
scalar World.node[28].nic.mac1609_4 TooLittleTime 0
scalar World.node[28].nic.mac1609_4 TimesIntoBackoff 626
scalar World.node[28].nic.mac1609_4 SlotsBackoff 4873
scalar World.node[28].nic.mac1609_4 NumInternalContention 0
scalar World.node[28].nic.mac1609_4 totalBusyTime 0.410785275506
scalar World.node[30].appl.middleware.CaService #cam_sent 595
scalar World.node[30].appl.middleware.ExampleService #full_proofs 1
scalar World.node[30].appl.middleware.ExampleService #half_proofs 3
scalar World.node[30].appl.middleware.ExampleService #failed_proofs 0
scalar World.node[30].appl.middleware.ExampleService #loc_proof_send 13
scalar World.node[30].nic.phy80211p busyTime 0.001163829059829
scalar World.node[30].nic.mac1609_4 ReceivedUnicastPackets 0
scalar World.node[30].nic.mac1609_4 ReceivedBroadcasts 1610
scalar World.node[30].nic.mac1609_4 SentPackets 608
scalar World.node[30].nic.mac1609_4 SentAcknowledgements 0
scalar World.node[30].nic.mac1609_4 SNIRLostPackets 67
scalar World.node[30].nic.mac1609_4 RXTXLostPackets 9
scalar World.node[30].nic.mac1609_4 TotalLostPackets 76
scalar World.node[30].nic.mac1609_4 DroppedPacketsInMac 0
scalar World.node[30].nic.mac1609_4 TooLittleTime 0
scalar World.node[30].nic.mac1609_4 TimesIntoBackoff 609
scalar World.node[30].nic.mac1609_4 SlotsBackoff 4508
scalar World.node[30].nic.mac1609_4 NumInternalContention 0
scalar World.node[30].nic.mac1609_4 totalBusyTime 0.370056050899
scalar World.node[33].appl.middleware.CaService #cam_sent 543
scalar World.node[33].appl.middleware.ExampleService #full_proofs 0
scalar World.node[33].appl.middleware.ExampleService #half_proofs 3
scalar World.node[33].appl.middleware.ExampleService #failed_proofs 0
scalar World.node[33].appl.middleware.ExampleService #loc_proof_send 13
scalar World.node[33].nic.phy80211p busyTime 0.0013856565656566
scalar World.node[33].nic.mac1609_4 ReceivedUnicastPackets 0
scalar World.node[33].nic.mac1609_4 ReceivedBroadcasts 1602
scalar World.node[33].nic.mac1609_4 SentPackets 556
scalar World.node[33].nic.mac1609_4 SentAcknowledgements 0
scalar World.node[33].nic.mac1609_4 SNIRLostPackets 84
scalar World.node[33].nic.mac1609_4 RXTXLostPackets 14
scalar World.node[33].nic.mac1609_4 TotalLostPackets 98
scalar World.node[33].nic.mac1609_4 DroppedPacketsInMac 0
scalar World.node[33].nic.mac1609_4 TooLittleTime 0
scalar World.node[33].nic.mac1609_4 TimesIntoBackoff 556
scalar World.node[33].nic.mac1609_4 SlotsBackoff 4009
scalar World.node[33].nic.mac1609_4 NumInternalContention 0
scalar World.node[33].nic.mac1609_4 totalBusyTime 0.364060247544
scalar World.node[40].appl.middleware.CaService #cam_sent 262
scalar World.node[40].appl.middleware.ExampleService #full_proofs 0
scalar World.node[40].appl.middleware.ExampleService #half_proofs 0
scalar World.node[40].appl.middleware.ExampleService #failed_proofs 1
scalar World.node[40].appl.middleware.ExampleService #loc_proof_send 9
scalar World.node[40].nic.phy80211p busyTime 0.0015875384615385
scalar World.node[40].nic.mac1609_4 ReceivedUnicastPackets 0
scalar World.node[40].nic.mac1609_4 ReceivedBroadcasts 911
scalar World.node[40].nic.mac1609_4 SentPackets 271
scalar World.node[40].nic.mac1609_4 SentAcknowledgements 0
scalar World.node[40].nic.mac1609_4 SNIRLostPackets 105
scalar World.node[40].nic.mac1609_4 RXTXLostPackets 18
scalar World.node[40].nic.mac1609_4 TotalLostPackets 123
scalar World.node[40].nic.mac1609_4 DroppedPacketsInMac 0
scalar World.node[40].nic.mac1609_4 TooLittleTime 0
scalar World.node[40].nic.mac1609_4 TimesIntoBackoff 272
scalar World.node[40].nic.mac1609_4 SlotsBackoff 1921
scalar World.node[40].nic.mac1609_4 NumInternalContention 0
scalar World.node[40].nic.mac1609_4 totalBusyTime 0.204575
scalar World.node[41].appl.middleware.CaService #cam_sent 314
scalar World.node[41].appl.middleware.ExampleService #full_proofs 2
scalar World.node[41].appl.middleware.ExampleService #half_proofs 0
scalar World.node[41].appl.middleware.ExampleService #failed_proofs 0
scalar World.node[41].appl.middleware.ExampleService #loc_proof_send 6
scalar World.node[41].nic.phy80211p busyTime 0.00051191489361702
scalar World.node[41].nic.mac1609_4 ReceivedUnicastPackets 0
scalar World.node[41].nic.mac1609_4 ReceivedBroadcasts 282
scalar World.node[41].nic.mac1609_4 SentPackets 320
scalar World.node[41].nic.mac1609_4 SentAcknowledgements 0
scalar World.node[41].nic.mac1609_4 SNIRLostPackets 17
scalar World.node[41].nic.mac1609_4 RXTXLostPackets 2
scalar World.node[41].nic.mac1609_4 TotalLostPackets 19
scalar World.node[41].nic.mac1609_4 DroppedPacketsInMac 0
scalar World.node[41].nic.mac1609_4 TooLittleTime 0
scalar World.node[41].nic.mac1609_4 TimesIntoBackoff 320
scalar World.node[41].nic.mac1609_4 SlotsBackoff 2455
scalar World.node[41].nic.mac1609_4 NumInternalContention 0
scalar World.node[41].nic.mac1609_4 totalBusyTime 0.100104
scalar World.node[37].appl.middleware.CaService #cam_sent 362
scalar World.node[37].appl.middleware.ExampleService #full_proofs 1
scalar World.node[37].appl.middleware.ExampleService #half_proofs 1
scalar World.node[37].appl.middleware.ExampleService #failed_proofs 1
scalar World.node[37].appl.middleware.ExampleService #loc_proof_send 13
scalar World.node[37].nic.phy80211p busyTime 0.0017281118881119
scalar World.node[37].nic.mac1609_4 ReceivedUnicastPackets 0
scalar World.node[37].nic.mac1609_4 ReceivedBroadcasts 1447
scalar World.node[37].nic.mac1609_4 SentPackets 375
scalar World.node[37].nic.mac1609_4 SentAcknowledgements 0
scalar World.node[37].nic.mac1609_4 SNIRLostPackets 75
scalar World.node[37].nic.mac1609_4 RXTXLostPackets 15
scalar World.node[37].nic.mac1609_4 TotalLostPackets 90
scalar World.node[37].nic.mac1609_4 DroppedPacketsInMac 0
scalar World.node[37].nic.mac1609_4 TooLittleTime 0
scalar World.node[37].nic.mac1609_4 TimesIntoBackoff 376
scalar World.node[37].nic.mac1609_4 SlotsBackoff 2868
scalar World.node[37].nic.mac1609_4 NumInternalContention 0
scalar World.node[37].nic.mac1609_4 totalBusyTime 0.306103
scalar World.node[32].appl.middleware.CaService #cam_sent 536
scalar World.node[32].appl.middleware.ExampleService #full_proofs 0
scalar World.node[32].appl.middleware.ExampleService #half_proofs 3
scalar World.node[32].appl.middleware.ExampleService #failed_proofs 0
scalar World.node[32].appl.middleware.ExampleService #loc_proof_send 18
scalar World.node[32].nic.phy80211p busyTime 0.0019085714285714
scalar World.node[32].nic.mac1609_4 ReceivedUnicastPackets 0
scalar World.node[32].nic.mac1609_4 ReceivedBroadcasts 2417
scalar World.node[32].nic.mac1609_4 SentPackets 554
scalar World.node[32].nic.mac1609_4 SentAcknowledgements 0
scalar World.node[32].nic.mac1609_4 SNIRLostPackets 137
scalar World.node[32].nic.mac1609_4 RXTXLostPackets 26
scalar World.node[32].nic.mac1609_4 TotalLostPackets 163
scalar World.node[32].nic.mac1609_4 DroppedPacketsInMac 0
scalar World.node[32].nic.mac1609_4 TooLittleTime 0
scalar World.node[32].nic.mac1609_4 TimesIntoBackoff 554
scalar World.node[32].nic.mac1609_4 SlotsBackoff 4172
scalar World.node[32].nic.mac1609_4 NumInternalContention 0
scalar World.node[32].nic.mac1609_4 totalBusyTime 0.498138528557
scalar World.node[36].appl.middleware.CaService #cam_sent 411
scalar World.node[36].appl.middleware.ExampleService #full_proofs 1
scalar World.node[36].appl.middleware.ExampleService #half_proofs 1
scalar World.node[36].appl.middleware.ExampleService #failed_proofs 0
scalar World.node[36].appl.middleware.ExampleService #loc_proof_send 8
scalar World.node[36].nic.phy80211p busyTime 0.00095040963855421
scalar World.node[36].nic.mac1609_4 ReceivedUnicastPackets 0
scalar World.node[36].nic.mac1609_4 ReceivedBroadcasts 902
scalar World.node[36].nic.mac1609_4 SentPackets 419
scalar World.node[36].nic.mac1609_4 SentAcknowledgements 0
scalar World.node[36].nic.mac1609_4 SNIRLostPackets 69
scalar World.node[36].nic.mac1609_4 RXTXLostPackets 11
scalar World.node[36].nic.mac1609_4 TotalLostPackets 80
scalar World.node[36].nic.mac1609_4 DroppedPacketsInMac 0
scalar World.node[36].nic.mac1609_4 TooLittleTime 0
scalar World.node[36].nic.mac1609_4 TimesIntoBackoff 419
scalar World.node[36].nic.mac1609_4 SlotsBackoff 3090
scalar World.node[36].nic.mac1609_4 NumInternalContention 0
scalar World.node[36].nic.mac1609_4 totalBusyTime 0.224891052073
scalar World.node[48].appl.middleware.CaService #cam_sent 108
scalar World.node[48].appl.middleware.ExampleService #full_proofs 0
scalar World.node[48].appl.middleware.ExampleService #half_proofs 0
scalar World.node[48].appl.middleware.ExampleService #failed_proofs 0
scalar World.node[48].appl.middleware.ExampleService #loc_proof_send 0
scalar World.node[48].nic.phy80211p busyTime 0.000546
scalar World.node[48].nic.mac1609_4 ReceivedUnicastPackets 0
scalar World.node[48].nic.mac1609_4 ReceivedBroadcasts 100
scalar World.node[48].nic.mac1609_4 SentPackets 108
scalar World.node[48].nic.mac1609_4 SentAcknowledgements 0
scalar World.node[48].nic.mac1609_4 SNIRLostPackets 8
scalar World.node[48].nic.mac1609_4 RXTXLostPackets 0
scalar World.node[48].nic.mac1609_4 TotalLostPackets 8
scalar World.node[48].nic.mac1609_4 DroppedPacketsInMac 0
scalar World.node[48].nic.mac1609_4 TooLittleTime 0
scalar World.node[48].nic.mac1609_4 TimesIntoBackoff 108
scalar World.node[48].nic.mac1609_4 SlotsBackoff 868
scalar World.node[48].nic.mac1609_4 NumInternalContention 0
scalar World.node[48].nic.mac1609_4 totalBusyTime 0.034836
scalar World.node[34].appl.middleware.CaService #cam_sent 569
scalar World.node[34].appl.middleware.ExampleService #full_proofs 0
scalar World.node[34].appl.middleware.ExampleService #half_proofs 4
scalar World.node[34].appl.middleware.ExampleService #failed_proofs 0
scalar World.node[34].appl.middleware.ExampleService #loc_proof_send 15
scalar World.node[34].nic.phy80211p busyTime 0.0015045217391304
scalar World.node[34].nic.mac1609_4 ReceivedUnicastPackets 0
scalar World.node[34].nic.mac1609_4 ReceivedBroadcasts 2003
scalar World.node[34].nic.mac1609_4 SentPackets 584
scalar World.node[34].nic.mac1609_4 SentAcknowledgements 0
scalar World.node[34].nic.mac1609_4 SNIRLostPackets 127
scalar World.node[34].nic.mac1609_4 RXTXLostPackets 14
scalar World.node[34].nic.mac1609_4 TotalLostPackets 141
scalar World.node[34].nic.mac1609_4 DroppedPacketsInMac 0
scalar World.node[34].nic.mac1609_4 TooLittleTime 0
scalar World.node[34].nic.mac1609_4 TimesIntoBackoff 585
scalar World.node[34].nic.mac1609_4 SlotsBackoff 4659
scalar World.node[34].nic.mac1609_4 NumInternalContention 0
scalar World.node[34].nic.mac1609_4 totalBusyTime 0.436408281177
scalar World.node[31].appl.middleware.CaService #cam_sent 591
scalar World.node[31].appl.middleware.ExampleService #full_proofs 1
scalar World.node[31].appl.middleware.ExampleService #half_proofs 2
scalar World.node[31].appl.middleware.ExampleService #failed_proofs 1
scalar World.node[31].appl.middleware.ExampleService #loc_proof_send 23
scalar World.node[31].nic.phy80211p busyTime 0.002031011235955
scalar World.node[31].nic.mac1609_4 ReceivedUnicastPackets 0
scalar World.node[31].nic.mac1609_4 ReceivedBroadcasts 3147
scalar World.node[31].nic.mac1609_4 SentPackets 614
scalar World.node[31].nic.mac1609_4 SentAcknowledgements 0
scalar World.node[31].nic.mac1609_4 SNIRLostPackets 190
scalar World.node[31].nic.mac1609_4 RXTXLostPackets 39
scalar World.node[31].nic.mac1609_4 TotalLostPackets 229
scalar World.node[31].nic.mac1609_4 DroppedPacketsInMac 0
scalar World.node[31].nic.mac1609_4 TooLittleTime 0
scalar World.node[31].nic.mac1609_4 TimesIntoBackoff 614
scalar World.node[31].nic.mac1609_4 SlotsBackoff 4817
scalar World.node[31].nic.mac1609_4 NumInternalContention 0
scalar World.node[31].nic.mac1609_4 totalBusyTime 0.63551850225
scalar World.node[43].appl.middleware.CaService #cam_sent 277
scalar World.node[43].appl.middleware.ExampleService #full_proofs 1
scalar World.node[43].appl.middleware.ExampleService #half_proofs 1
scalar World.node[43].appl.middleware.ExampleService #failed_proofs 0
scalar World.node[43].appl.middleware.ExampleService #loc_proof_send 11
scalar World.node[43].nic.phy80211p busyTime 0.0015379823008849
scalar World.node[43].nic.mac1609_4 ReceivedUnicastPackets 0
scalar World.node[43].nic.mac1609_4 ReceivedBroadcasts 1010
scalar World.node[43].nic.mac1609_4 SentPackets 288
scalar World.node[43].nic.mac1609_4 SentAcknowledgements 0
scalar World.node[43].nic.mac1609_4 SNIRLostPackets 58
scalar World.node[43].nic.mac1609_4 RXTXLostPackets 18
scalar World.node[43].nic.mac1609_4 TotalLostPackets 76
scalar World.node[43].nic.mac1609_4 DroppedPacketsInMac 0
scalar World.node[43].nic.mac1609_4 TooLittleTime 0
scalar World.node[43].nic.mac1609_4 TimesIntoBackoff 288
scalar World.node[43].nic.mac1609_4 SlotsBackoff 2202
scalar World.node[43].nic.mac1609_4 NumInternalContention 0
scalar World.node[43].nic.mac1609_4 totalBusyTime 0.219848
scalar World.node[38].appl.middleware.CaService #cam_sent 511
scalar World.node[38].appl.middleware.ExampleService #full_proofs 1
scalar World.node[38].appl.middleware.ExampleService #half_proofs 2
scalar World.node[38].appl.middleware.ExampleService #failed_proofs 0
scalar World.node[38].appl.middleware.ExampleService #loc_proof_send 12
scalar World.node[38].nic.phy80211p busyTime 0.0012885572139303
scalar World.node[38].nic.mac1609_4 ReceivedUnicastPackets 0
scalar World.node[38].nic.mac1609_4 ReceivedBroadcasts 1487
scalar World.node[38].nic.mac1609_4 SentPackets 523
scalar World.node[38].nic.mac1609_4 SentAcknowledgements 0
scalar World.node[38].nic.mac1609_4 SNIRLostPackets 108
scalar World.node[38].nic.mac1609_4 RXTXLostPackets 44
scalar World.node[38].nic.mac1609_4 TotalLostPackets 152
scalar World.node[38].nic.mac1609_4 DroppedPacketsInMac 0
scalar World.node[38].nic.mac1609_4 TooLittleTime 0
scalar World.node[38].nic.mac1609_4 TimesIntoBackoff 537
scalar World.node[38].nic.mac1609_4 SlotsBackoff 4077
scalar World.node[38].nic.mac1609_4 NumInternalContention 0
scalar World.node[38].nic.mac1609_4 totalBusyTime 0.342651712142
scalar World.node[45].appl.middleware.CaService #cam_sent 377
scalar World.node[45].appl.middleware.ExampleService #full_proofs 2
scalar World.node[45].appl.middleware.ExampleService #half_proofs 0
scalar World.node[45].appl.middleware.ExampleService #failed_proofs 0
scalar World.node[45].appl.middleware.ExampleService #loc_proof_send 10
scalar World.node[45].nic.phy80211p busyTime 0.0012346870229008
scalar World.node[45].nic.mac1609_4 ReceivedUnicastPackets 0
scalar World.node[45].nic.mac1609_4 ReceivedBroadcasts 927
scalar World.node[45].nic.mac1609_4 SentPackets 387
scalar World.node[45].nic.mac1609_4 SentAcknowledgements 0
scalar World.node[45].nic.mac1609_4 SNIRLostPackets 71
scalar World.node[45].nic.mac1609_4 RXTXLostPackets 3
scalar World.node[45].nic.mac1609_4 TotalLostPackets 74
scalar World.node[45].nic.mac1609_4 DroppedPacketsInMac 0
scalar World.node[45].nic.mac1609_4 TooLittleTime 0
scalar World.node[45].nic.mac1609_4 TimesIntoBackoff 388
scalar World.node[45].nic.mac1609_4 SlotsBackoff 2893
scalar World.node[45].nic.mac1609_4 NumInternalContention 0
scalar World.node[45].nic.mac1609_4 totalBusyTime 0.223267529813
scalar World.node[44].appl.middleware.CaService #cam_sent 368
scalar World.node[44].appl.middleware.ExampleService #full_proofs 0
scalar World.node[44].appl.middleware.ExampleService #half_proofs 1
scalar World.node[44].appl.middleware.ExampleService #failed_proofs 0
scalar World.node[44].appl.middleware.ExampleService #loc_proof_send 5
scalar World.node[44].nic.phy80211p busyTime 0.00091255172413793
scalar World.node[44].nic.mac1609_4 ReceivedUnicastPackets 0
scalar World.node[44].nic.mac1609_4 ReceivedBroadcasts 700
scalar World.node[44].nic.mac1609_4 SentPackets 373
scalar World.node[44].nic.mac1609_4 SentAcknowledgements 0
scalar World.node[44].nic.mac1609_4 SNIRLostPackets 112
scalar World.node[44].nic.mac1609_4 RXTXLostPackets 6
scalar World.node[44].nic.mac1609_4 TotalLostPackets 118
scalar World.node[44].nic.mac1609_4 DroppedPacketsInMac 0
scalar World.node[44].nic.mac1609_4 TooLittleTime 0
scalar World.node[44].nic.mac1609_4 TimesIntoBackoff 373
scalar World.node[44].nic.mac1609_4 SlotsBackoff 2778
scalar World.node[44].nic.mac1609_4 NumInternalContention 0
scalar World.node[44].nic.mac1609_4 totalBusyTime 0.192813171199
scalar World.node[35].appl.middleware.CaService #cam_sent 679
scalar World.node[35].appl.middleware.ExampleService #full_proofs 1
scalar World.node[35].appl.middleware.ExampleService #half_proofs 1
scalar World.node[35].appl.middleware.ExampleService #failed_proofs 1
scalar World.node[35].appl.middleware.ExampleService #loc_proof_send 14
scalar World.node[35].nic.phy80211p busyTime 0.0013515625
scalar World.node[35].nic.mac1609_4 ReceivedUnicastPackets 0
scalar World.node[35].nic.mac1609_4 ReceivedBroadcasts 1990
scalar World.node[35].nic.mac1609_4 SentPackets 693
scalar World.node[35].nic.mac1609_4 SentAcknowledgements 0
scalar World.node[35].nic.mac1609_4 SNIRLostPackets 146
scalar World.node[35].nic.mac1609_4 RXTXLostPackets 25
scalar World.node[35].nic.mac1609_4 TotalLostPackets 171
scalar World.node[35].nic.mac1609_4 DroppedPacketsInMac 0
scalar World.node[35].nic.mac1609_4 TooLittleTime 0
scalar World.node[35].nic.mac1609_4 TimesIntoBackoff 694
scalar World.node[35].nic.mac1609_4 SlotsBackoff 5143
scalar World.node[35].nic.mac1609_4 NumInternalContention 0
scalar World.node[35].nic.mac1609_4 totalBusyTime 0.45391722548
scalar World.node[42].appl.middleware.CaService #cam_sent 484
scalar World.node[42].appl.middleware.ExampleService #full_proofs 1
scalar World.node[42].appl.middleware.ExampleService #half_proofs 0
scalar World.node[42].appl.middleware.ExampleService #failed_proofs 2
scalar World.node[42].appl.middleware.ExampleService #loc_proof_send 14
scalar World.node[42].nic.phy80211p busyTime 0.0015267389162561
scalar World.node[42].nic.mac1609_4 ReceivedUnicastPackets 0
scalar World.node[42].nic.mac1609_4 ReceivedBroadcasts 1787
scalar World.node[42].nic.mac1609_4 SentPackets 498
scalar World.node[42].nic.mac1609_4 SentAcknowledgements 0
scalar World.node[42].nic.mac1609_4 SNIRLostPackets 116
scalar World.node[42].nic.mac1609_4 RXTXLostPackets 54
scalar World.node[42].nic.mac1609_4 TotalLostPackets 170
scalar World.node[42].nic.mac1609_4 DroppedPacketsInMac 0
scalar World.node[42].nic.mac1609_4 TooLittleTime 0
scalar World.node[42].nic.mac1609_4 TimesIntoBackoff 498
scalar World.node[42].nic.mac1609_4 SlotsBackoff 3791
scalar World.node[42].nic.mac1609_4 NumInternalContention 0
scalar World.node[42].nic.mac1609_4 totalBusyTime 0.389970723081
scalar World.node[58].appl.middleware.CaService #cam_sent 62
scalar World.node[58].appl.middleware.ExampleService #full_proofs 0
scalar World.node[58].appl.middleware.ExampleService #half_proofs 0
scalar World.node[58].appl.middleware.ExampleService #failed_proofs 0
scalar World.node[58].appl.middleware.ExampleService #loc_proof_send 0
scalar World.node[58].nic.phy80211p busyTime 0.001184
scalar World.node[58].nic.mac1609_4 ReceivedUnicastPackets 0
scalar World.node[58].nic.mac1609_4 ReceivedBroadcasts 126
scalar World.node[58].nic.mac1609_4 SentPackets 62
scalar World.node[58].nic.mac1609_4 SentAcknowledgements 0
scalar World.node[58].nic.mac1609_4 SNIRLostPackets 4
scalar World.node[58].nic.mac1609_4 RXTXLostPackets 0
scalar World.node[58].nic.mac1609_4 TotalLostPackets 4
scalar World.node[58].nic.mac1609_4 DroppedPacketsInMac 0
scalar World.node[58].nic.mac1609_4 TooLittleTime 0
scalar World.node[58].nic.mac1609_4 TimesIntoBackoff 62
scalar World.node[58].nic.mac1609_4 SlotsBackoff 553
scalar World.node[58].nic.mac1609_4 NumInternalContention 0
scalar World.node[58].nic.mac1609_4 totalBusyTime 0.031382
scalar World.node[52].appl.middleware.CaService #cam_sent 322
scalar World.node[52].appl.middleware.ExampleService #full_proofs 1
scalar World.node[52].appl.middleware.ExampleService #half_proofs 1
scalar World.node[52].appl.middleware.ExampleService #failed_proofs 0
scalar World.node[52].appl.middleware.ExampleService #loc_proof_send 4
scalar World.node[52].nic.phy80211p busyTime 0.0012420202020202
scalar World.node[52].nic.mac1609_4 ReceivedUnicastPackets 0
scalar World.node[52].nic.mac1609_4 ReceivedBroadcasts 741
scalar World.node[52].nic.mac1609_4 SentPackets 326
scalar World.node[52].nic.mac1609_4 SentAcknowledgements 0
scalar World.node[52].nic.mac1609_4 SNIRLostPackets 16
scalar World.node[52].nic.mac1609_4 RXTXLostPackets 0
scalar World.node[52].nic.mac1609_4 TotalLostPackets 16
scalar World.node[52].nic.mac1609_4 DroppedPacketsInMac 0
scalar World.node[52].nic.mac1609_4 TooLittleTime 0
scalar World.node[52].nic.mac1609_4 TimesIntoBackoff 326
scalar World.node[52].nic.mac1609_4 SlotsBackoff 2458
scalar World.node[52].nic.mac1609_4 NumInternalContention 0
scalar World.node[52].nic.mac1609_4 totalBusyTime 0.175862
scalar World.node[46].appl.middleware.CaService #cam_sent 453
scalar World.node[46].appl.middleware.ExampleService #full_proofs 0
scalar World.node[46].appl.middleware.ExampleService #half_proofs 2
scalar World.node[46].appl.middleware.ExampleService #failed_proofs 1
scalar World.node[46].appl.middleware.ExampleService #loc_proof_send 16
scalar World.node[46].nic.phy80211p busyTime 0.001589612565445
scalar World.node[46].nic.mac1609_4 ReceivedUnicastPackets 0
scalar World.node[46].nic.mac1609_4 ReceivedBroadcasts 1746
scalar World.node[46].nic.mac1609_4 SentPackets 469
scalar World.node[46].nic.mac1609_4 SentAcknowledgements 0
scalar World.node[46].nic.mac1609_4 SNIRLostPackets 118
scalar World.node[46].nic.mac1609_4 RXTXLostPackets 25
scalar World.node[46].nic.mac1609_4 TotalLostPackets 143
scalar World.node[46].nic.mac1609_4 DroppedPacketsInMac 0
scalar World.node[46].nic.mac1609_4 TooLittleTime 0
scalar World.node[46].nic.mac1609_4 TimesIntoBackoff 470
scalar World.node[46].nic.mac1609_4 SlotsBackoff 3592
scalar World.node[46].nic.mac1609_4 NumInternalContention 0
scalar World.node[46].nic.mac1609_4 totalBusyTime 0.377893404626
scalar World.node[47].appl.middleware.CaService #cam_sent 463
scalar World.node[47].appl.middleware.ExampleService #full_proofs 2
scalar World.node[47].appl.middleware.ExampleService #half_proofs 1
scalar World.node[47].appl.middleware.ExampleService #failed_proofs 0
scalar World.node[47].appl.middleware.ExampleService #loc_proof_send 12
scalar World.node[47].nic.phy80211p busyTime 0.0011790909090909
scalar World.node[47].nic.mac1609_4 ReceivedUnicastPackets 0
scalar World.node[47].nic.mac1609_4 ReceivedBroadcasts 1180
scalar World.node[47].nic.mac1609_4 SentPackets 475
scalar World.node[47].nic.mac1609_4 SentAcknowledgements 0
scalar World.node[47].nic.mac1609_4 SNIRLostPackets 97
scalar World.node[47].nic.mac1609_4 RXTXLostPackets 8
scalar World.node[47].nic.mac1609_4 TotalLostPackets 105
scalar World.node[47].nic.mac1609_4 DroppedPacketsInMac 0
scalar World.node[47].nic.mac1609_4 TooLittleTime 0
scalar World.node[47].nic.mac1609_4 TimesIntoBackoff 475
scalar World.node[47].nic.mac1609_4 SlotsBackoff 3441
scalar World.node[47].nic.mac1609_4 NumInternalContention 0
scalar World.node[47].nic.mac1609_4 totalBusyTime 0.283707165004
scalar World.node[56].appl.middleware.CaService #cam_sent 238
scalar World.node[56].appl.middleware.ExampleService #full_proofs 1
scalar World.node[56].appl.middleware.ExampleService #half_proofs 1
scalar World.node[56].appl.middleware.ExampleService #failed_proofs 0
scalar World.node[56].appl.middleware.ExampleService #loc_proof_send 8
scalar World.node[56].nic.phy80211p busyTime 0.0015392888888889
scalar World.node[56].nic.mac1609_4 ReceivedUnicastPackets 0
scalar World.node[56].nic.mac1609_4 ReceivedBroadcasts 835
scalar World.node[56].nic.mac1609_4 SentPackets 246
scalar World.node[56].nic.mac1609_4 SentAcknowledgements 0
scalar World.node[56].nic.mac1609_4 SNIRLostPackets 17
scalar World.node[56].nic.mac1609_4 RXTXLostPackets 9
scalar World.node[56].nic.mac1609_4 TotalLostPackets 26
scalar World.node[56].nic.mac1609_4 DroppedPacketsInMac 0
scalar World.node[56].nic.mac1609_4 TooLittleTime 0
scalar World.node[56].nic.mac1609_4 TimesIntoBackoff 247
scalar World.node[56].nic.mac1609_4 SlotsBackoff 1947
scalar World.node[56].nic.mac1609_4 NumInternalContention 0
scalar World.node[56].nic.mac1609_4 totalBusyTime 0.178118092374
scalar World.node[39].appl.middleware.CaService #cam_sent 823
scalar World.node[39].appl.middleware.ExampleService #full_proofs 1
scalar World.node[39].appl.middleware.ExampleService #half_proofs 4
scalar World.node[39].appl.middleware.ExampleService #failed_proofs 0
scalar World.node[39].appl.middleware.ExampleService #loc_proof_send 24
scalar World.node[39].nic.phy80211p busyTime 0.001561139158576
scalar World.node[39].nic.mac1609_4 ReceivedUnicastPackets 0
scalar World.node[39].nic.mac1609_4 ReceivedBroadcasts 2776
scalar World.node[39].nic.mac1609_4 SentPackets 847
scalar World.node[39].nic.mac1609_4 SentAcknowledgements 0
scalar World.node[39].nic.mac1609_4 SNIRLostPackets 186
scalar World.node[39].nic.mac1609_4 RXTXLostPackets 47
scalar World.node[39].nic.mac1609_4 TotalLostPackets 233
scalar World.node[39].nic.mac1609_4 DroppedPacketsInMac 0
scalar World.node[39].nic.mac1609_4 TooLittleTime 0
scalar World.node[39].nic.mac1609_4 TimesIntoBackoff 848
scalar World.node[39].nic.mac1609_4 SlotsBackoff 6615
scalar World.node[39].nic.mac1609_4 NumInternalContention 0
scalar World.node[39].nic.mac1609_4 totalBusyTime 0.616263370119
scalar World.node[53].appl.middleware.CaService #cam_sent 284
scalar World.node[53].appl.middleware.ExampleService #full_proofs 0
scalar World.node[53].appl.middleware.ExampleService #half_proofs 1
scalar World.node[53].appl.middleware.ExampleService #failed_proofs 1
scalar World.node[53].appl.middleware.ExampleService #loc_proof_send 13
scalar World.node[53].nic.phy80211p busyTime 0.001527768115942
scalar World.node[53].nic.mac1609_4 ReceivedUnicastPackets 0
scalar World.node[53].nic.mac1609_4 ReceivedBroadcasts 1231
scalar World.node[53].nic.mac1609_4 SentPackets 297
scalar World.node[53].nic.mac1609_4 SentAcknowledgements 0
scalar World.node[53].nic.mac1609_4 SNIRLostPackets 67
scalar World.node[53].nic.mac1609_4 RXTXLostPackets 14
scalar World.node[53].nic.mac1609_4 TotalLostPackets 81
scalar World.node[53].nic.mac1609_4 DroppedPacketsInMac 0
scalar World.node[53].nic.mac1609_4 TooLittleTime 0
scalar World.node[53].nic.mac1609_4 TimesIntoBackoff 297
scalar World.node[53].nic.mac1609_4 SlotsBackoff 2382
scalar World.node[53].nic.mac1609_4 NumInternalContention 0
scalar World.node[53].nic.mac1609_4 totalBusyTime 0.257425083869
scalar World.node[50].appl.middleware.CaService #cam_sent 472
scalar World.node[50].appl.middleware.ExampleService #full_proofs 1
scalar World.node[50].appl.middleware.ExampleService #half_proofs 1
scalar World.node[50].appl.middleware.ExampleService #failed_proofs 0
scalar World.node[50].appl.middleware.ExampleService #loc_proof_send 11
scalar World.node[50].nic.phy80211p busyTime 0.0013029392265193
scalar World.node[50].nic.mac1609_4 ReceivedUnicastPackets 0
scalar World.node[50].nic.mac1609_4 ReceivedBroadcasts 1351
scalar World.node[50].nic.mac1609_4 SentPackets 483
scalar World.node[50].nic.mac1609_4 SentAcknowledgements 0
scalar World.node[50].nic.mac1609_4 SNIRLostPackets 97
scalar World.node[50].nic.mac1609_4 RXTXLostPackets 7
scalar World.node[50].nic.mac1609_4 TotalLostPackets 104
scalar World.node[50].nic.mac1609_4 DroppedPacketsInMac 0
scalar World.node[50].nic.mac1609_4 TooLittleTime 0
scalar World.node[50].nic.mac1609_4 TimesIntoBackoff 483
scalar World.node[50].nic.mac1609_4 SlotsBackoff 3579
scalar World.node[50].nic.mac1609_4 NumInternalContention 0
scalar World.node[50].nic.mac1609_4 totalBusyTime 0.314043
scalar World.node[57].appl.middleware.CaService #cam_sent 403
scalar World.node[57].appl.middleware.ExampleService #full_proofs 1
scalar World.node[57].appl.middleware.ExampleService #half_proofs 0
scalar World.node[57].appl.middleware.ExampleService #failed_proofs 0
scalar World.node[57].appl.middleware.ExampleService #loc_proof_send 7
scalar World.node[57].nic.phy80211p busyTime 0.0014308823529412
scalar World.node[57].nic.mac1609_4 ReceivedUnicastPackets 0
scalar World.node[57].nic.mac1609_4 ReceivedBroadcasts 1167
scalar World.node[57].nic.mac1609_4 SentPackets 410
scalar World.node[57].nic.mac1609_4 SentAcknowledgements 0
scalar World.node[57].nic.mac1609_4 SNIRLostPackets 28
scalar World.node[57].nic.mac1609_4 RXTXLostPackets 7
scalar World.node[57].nic.mac1609_4 TotalLostPackets 35
scalar World.node[57].nic.mac1609_4 DroppedPacketsInMac 0
scalar World.node[57].nic.mac1609_4 TooLittleTime 0
scalar World.node[57].nic.mac1609_4 TimesIntoBackoff 414
scalar World.node[57].nic.mac1609_4 SlotsBackoff 2885
scalar World.node[57].nic.mac1609_4 NumInternalContention 0
scalar World.node[57].nic.mac1609_4 totalBusyTime 0.261514006172
scalar World.node[51].appl.middleware.CaService #cam_sent 505
scalar World.node[51].appl.middleware.ExampleService #full_proofs 0
scalar World.node[51].appl.middleware.ExampleService #half_proofs 3
scalar World.node[51].appl.middleware.ExampleService #failed_proofs 0
scalar World.node[51].appl.middleware.ExampleService #loc_proof_send 10
scalar World.node[51].nic.phy80211p busyTime 0.0014599245283019
scalar World.node[51].nic.mac1609_4 ReceivedUnicastPackets 0
scalar World.node[51].nic.mac1609_4 ReceivedBroadcasts 1743
scalar World.node[51].nic.mac1609_4 SentPackets 515
scalar World.node[51].nic.mac1609_4 SentAcknowledgements 0
scalar World.node[51].nic.mac1609_4 SNIRLostPackets 162
scalar World.node[51].nic.mac1609_4 RXTXLostPackets 8
scalar World.node[51].nic.mac1609_4 TotalLostPackets 170
scalar World.node[51].nic.mac1609_4 DroppedPacketsInMac 0
scalar World.node[51].nic.mac1609_4 TooLittleTime 0
scalar World.node[51].nic.mac1609_4 TimesIntoBackoff 517
scalar World.node[51].nic.mac1609_4 SlotsBackoff 3759
scalar World.node[51].nic.mac1609_4 NumInternalContention 0
scalar World.node[51].nic.mac1609_4 totalBusyTime 0.393171
scalar World.node[59].appl.middleware.CaService #cam_sent 418
scalar World.node[59].appl.middleware.ExampleService #full_proofs 0
scalar World.node[59].appl.middleware.ExampleService #half_proofs 0
scalar World.node[59].appl.middleware.ExampleService #failed_proofs 0
scalar World.node[59].appl.middleware.ExampleService #loc_proof_send 1
scalar World.node[59].nic.phy80211p busyTime 0.000527424
scalar World.node[59].nic.mac1609_4 ReceivedUnicastPackets 0
scalar World.node[59].nic.mac1609_4 ReceivedBroadcasts 319
scalar World.node[59].nic.mac1609_4 SentPackets 419
scalar World.node[59].nic.mac1609_4 SentAcknowledgements 0
scalar World.node[59].nic.mac1609_4 SNIRLostPackets 85
scalar World.node[59].nic.mac1609_4 RXTXLostPackets 0
scalar World.node[59].nic.mac1609_4 TotalLostPackets 85
scalar World.node[59].nic.mac1609_4 DroppedPacketsInMac 0
scalar World.node[59].nic.mac1609_4 TooLittleTime 0
scalar World.node[59].nic.mac1609_4 TimesIntoBackoff 419
scalar World.node[59].nic.mac1609_4 SlotsBackoff 3010
scalar World.node[59].nic.mac1609_4 NumInternalContention 0
scalar World.node[59].nic.mac1609_4 totalBusyTime 0.134571
scalar World.node[54].appl.middleware.CaService #cam_sent 494
scalar World.node[54].appl.middleware.ExampleService #full_proofs 1
scalar World.node[54].appl.middleware.ExampleService #half_proofs 2
scalar World.node[54].appl.middleware.ExampleService #failed_proofs 0
scalar World.node[54].appl.middleware.ExampleService #loc_proof_send 12
scalar World.node[54].nic.phy80211p busyTime 0.0013137055837563
scalar World.node[54].nic.mac1609_4 ReceivedUnicastPackets 0
scalar World.node[54].nic.mac1609_4 ReceivedBroadcasts 1518
scalar World.node[54].nic.mac1609_4 SentPackets 506
scalar World.node[54].nic.mac1609_4 SentAcknowledgements 0
scalar World.node[54].nic.mac1609_4 SNIRLostPackets 73
scalar World.node[54].nic.mac1609_4 RXTXLostPackets 16
scalar World.node[54].nic.mac1609_4 TotalLostPackets 89
scalar World.node[54].nic.mac1609_4 DroppedPacketsInMac 0
scalar World.node[54].nic.mac1609_4 TooLittleTime 0
scalar World.node[54].nic.mac1609_4 TimesIntoBackoff 506
scalar World.node[54].nic.mac1609_4 SlotsBackoff 3690
scalar World.node[54].nic.mac1609_4 NumInternalContention 0
scalar World.node[54].nic.mac1609_4 totalBusyTime 0.335050179322
scalar World.node[55].appl.middleware.CaService #cam_sent 408
scalar World.node[55].appl.middleware.ExampleService #full_proofs 1
scalar World.node[55].appl.middleware.ExampleService #half_proofs 2
scalar World.node[55].appl.middleware.ExampleService #failed_proofs 0
scalar World.node[55].appl.middleware.ExampleService #loc_proof_send 11
scalar World.node[55].nic.phy80211p busyTime 0.00076510552763819
scalar World.node[55].nic.mac1609_4 ReceivedUnicastPackets 0
scalar World.node[55].nic.mac1609_4 ReceivedBroadcasts 897
scalar World.node[55].nic.mac1609_4 SentPackets 419
scalar World.node[55].nic.mac1609_4 SentAcknowledgements 0
scalar World.node[55].nic.mac1609_4 SNIRLostPackets 40
scalar World.node[55].nic.mac1609_4 RXTXLostPackets 3
scalar World.node[55].nic.mac1609_4 TotalLostPackets 43
scalar World.node[55].nic.mac1609_4 DroppedPacketsInMac 0
scalar World.node[55].nic.mac1609_4 TooLittleTime 0
scalar World.node[55].nic.mac1609_4 TimesIntoBackoff 419
scalar World.node[55].nic.mac1609_4 SlotsBackoff 3047
scalar World.node[55].nic.mac1609_4 NumInternalContention 0
scalar World.node[55].nic.mac1609_4 totalBusyTime 0.220003051505
scalar World.node[64].appl.middleware.CaService #cam_sent 182
scalar World.node[64].appl.middleware.ExampleService #full_proofs 1
scalar World.node[64].appl.middleware.ExampleService #half_proofs 0
scalar World.node[64].appl.middleware.ExampleService #failed_proofs 0
scalar World.node[64].appl.middleware.ExampleService #loc_proof_send 2
scalar World.node[64].nic.phy80211p busyTime 0.00057585185185185
scalar World.node[64].nic.mac1609_4 ReceivedUnicastPackets 0
scalar World.node[64].nic.mac1609_4 ReceivedBroadcasts 183
scalar World.node[64].nic.mac1609_4 SentPackets 184
scalar World.node[64].nic.mac1609_4 SentAcknowledgements 0
scalar World.node[64].nic.mac1609_4 SNIRLostPackets 9
scalar World.node[64].nic.mac1609_4 RXTXLostPackets 0
scalar World.node[64].nic.mac1609_4 TotalLostPackets 9
scalar World.node[64].nic.mac1609_4 DroppedPacketsInMac 0
scalar World.node[64].nic.mac1609_4 TooLittleTime 0
scalar World.node[64].nic.mac1609_4 TimesIntoBackoff 184
scalar World.node[64].nic.mac1609_4 SlotsBackoff 1454
scalar World.node[64].nic.mac1609_4 NumInternalContention 0
scalar World.node[64].nic.mac1609_4 totalBusyTime 0.06108
scalar World.node[49].appl.middleware.CaService #cam_sent 664
scalar World.node[49].appl.middleware.ExampleService #full_proofs 2
scalar World.node[49].appl.middleware.ExampleService #half_proofs 2
scalar World.node[49].appl.middleware.ExampleService #failed_proofs 0
scalar World.node[49].appl.middleware.ExampleService #loc_proof_send 17
scalar World.node[49].nic.phy80211p busyTime 0.0010644197530864
scalar World.node[49].nic.mac1609_4 ReceivedUnicastPackets 0
scalar World.node[49].nic.mac1609_4 ReceivedBroadcasts 2010
scalar World.node[49].nic.mac1609_4 SentPackets 681
scalar World.node[49].nic.mac1609_4 SentAcknowledgements 0
scalar World.node[49].nic.mac1609_4 SNIRLostPackets 112
scalar World.node[49].nic.mac1609_4 RXTXLostPackets 13
scalar World.node[49].nic.mac1609_4 TotalLostPackets 125
scalar World.node[49].nic.mac1609_4 DroppedPacketsInMac 0
scalar World.node[49].nic.mac1609_4 TooLittleTime 0
scalar World.node[49].nic.mac1609_4 TimesIntoBackoff 683
scalar World.node[49].nic.mac1609_4 SlotsBackoff 5215
scalar World.node[49].nic.mac1609_4 NumInternalContention 0
scalar World.node[49].nic.mac1609_4 totalBusyTime 0.45451312936
scalar World.node[60].appl.middleware.CaService #cam_sent 452
scalar World.node[60].appl.middleware.ExampleService #full_proofs 0
scalar World.node[60].appl.middleware.ExampleService #half_proofs 0
scalar World.node[60].appl.middleware.ExampleService #failed_proofs 0
scalar World.node[60].appl.middleware.ExampleService #loc_proof_send 4
scalar World.node[60].nic.phy80211p busyTime 0.00051378947368421
scalar World.node[60].nic.mac1609_4 ReceivedUnicastPackets 0
scalar World.node[60].nic.mac1609_4 ReceivedBroadcasts 444
scalar World.node[60].nic.mac1609_4 SentPackets 456
scalar World.node[60].nic.mac1609_4 SentAcknowledgements 0
scalar World.node[60].nic.mac1609_4 SNIRLostPackets 34
scalar World.node[60].nic.mac1609_4 RXTXLostPackets 1
scalar World.node[60].nic.mac1609_4 TotalLostPackets 35
scalar World.node[60].nic.mac1609_4 DroppedPacketsInMac 0
scalar World.node[60].nic.mac1609_4 TooLittleTime 0
scalar World.node[60].nic.mac1609_4 TimesIntoBackoff 456
scalar World.node[60].nic.mac1609_4 SlotsBackoff 3365
scalar World.node[60].nic.mac1609_4 NumInternalContention 0
scalar World.node[60].nic.mac1609_4 totalBusyTime 0.152792
scalar World.node[61].appl.middleware.CaService #cam_sent 425
scalar World.node[61].appl.middleware.ExampleService #full_proofs 1
scalar World.node[61].appl.middleware.ExampleService #half_proofs 0
scalar World.node[61].appl.middleware.ExampleService #failed_proofs 1
scalar World.node[61].appl.middleware.ExampleService #loc_proof_send 6
scalar World.node[61].nic.phy80211p busyTime 0.00064178313253012
scalar World.node[61].nic.mac1609_4 ReceivedUnicastPackets 0
scalar World.node[61].nic.mac1609_4 ReceivedBroadcasts 531
scalar World.node[61].nic.mac1609_4 SentPackets 431
scalar World.node[61].nic.mac1609_4 SentAcknowledgements 0
scalar World.node[61].nic.mac1609_4 SNIRLostPackets 125
scalar World.node[61].nic.mac1609_4 RXTXLostPackets 0
scalar World.node[61].nic.mac1609_4 TotalLostPackets 125
scalar World.node[61].nic.mac1609_4 DroppedPacketsInMac 0
scalar World.node[61].nic.mac1609_4 TooLittleTime 0
scalar World.node[61].nic.mac1609_4 TimesIntoBackoff 431
scalar World.node[61].nic.mac1609_4 SlotsBackoff 3270
scalar World.node[61].nic.mac1609_4 NumInternalContention 0
scalar World.node[61].nic.mac1609_4 totalBusyTime 0.177007
scalar World.node[65].appl.middleware.CaService #cam_sent 404
scalar World.node[65].appl.middleware.ExampleService #full_proofs 2
scalar World.node[65].appl.middleware.ExampleService #half_proofs 0
scalar World.node[65].appl.middleware.ExampleService #failed_proofs 0
scalar World.node[65].appl.middleware.ExampleService #loc_proof_send 3
scalar World.node[65].nic.phy80211p busyTime 0.00045361983471075
scalar World.node[65].nic.mac1609_4 ReceivedUnicastPackets 0
scalar World.node[65].nic.mac1609_4 ReceivedBroadcasts 290
scalar World.node[65].nic.mac1609_4 SentPackets 407
scalar World.node[65].nic.mac1609_4 SentAcknowledgements 0
scalar World.node[65].nic.mac1609_4 SNIRLostPackets 46
scalar World.node[65].nic.mac1609_4 RXTXLostPackets 0
scalar World.node[65].nic.mac1609_4 TotalLostPackets 46
scalar World.node[65].nic.mac1609_4 DroppedPacketsInMac 0
scalar World.node[65].nic.mac1609_4 TooLittleTime 0
scalar World.node[65].nic.mac1609_4 TimesIntoBackoff 407
scalar World.node[65].nic.mac1609_4 SlotsBackoff 3077
scalar World.node[65].nic.mac1609_4 NumInternalContention 0
scalar World.node[65].nic.mac1609_4 totalBusyTime 0.121543
scalar World.node[66].appl.middleware.CaService #cam_sent 351
scalar World.node[66].appl.middleware.ExampleService #full_proofs 0
scalar World.node[66].appl.middleware.ExampleService #half_proofs 1
scalar World.node[66].appl.middleware.ExampleService #failed_proofs 0
scalar World.node[66].appl.middleware.ExampleService #loc_proof_send 5
scalar World.node[66].nic.phy80211p busyTime 0.00058725203252033
scalar World.node[66].nic.mac1609_4 ReceivedUnicastPackets 0
scalar World.node[66].nic.mac1609_4 ReceivedBroadcasts 408
scalar World.node[66].nic.mac1609_4 SentPackets 356
scalar World.node[66].nic.mac1609_4 SentAcknowledgements 0
scalar World.node[66].nic.mac1609_4 SNIRLostPackets 36
scalar World.node[66].nic.mac1609_4 RXTXLostPackets 1
scalar World.node[66].nic.mac1609_4 TotalLostPackets 37
scalar World.node[66].nic.mac1609_4 DroppedPacketsInMac 0
scalar World.node[66].nic.mac1609_4 TooLittleTime 0
scalar World.node[66].nic.mac1609_4 TimesIntoBackoff 356
scalar World.node[66].nic.mac1609_4 SlotsBackoff 2695
scalar World.node[66].nic.mac1609_4 NumInternalContention 0
scalar World.node[66].nic.mac1609_4 totalBusyTime 0.130524050039
scalar World.node[67].appl.middleware.CaService #cam_sent 280
scalar World.node[67].appl.middleware.ExampleService #full_proofs 1
scalar World.node[67].appl.middleware.ExampleService #half_proofs 1
scalar World.node[67].appl.middleware.ExampleService #failed_proofs 0
scalar World.node[67].appl.middleware.ExampleService #loc_proof_send 4
scalar World.node[67].nic.phy80211p busyTime 0.0007735
scalar World.node[67].nic.mac1609_4 ReceivedUnicastPackets 0
scalar World.node[67].nic.mac1609_4 ReceivedBroadcasts 473
scalar World.node[67].nic.mac1609_4 SentPackets 284
scalar World.node[67].nic.mac1609_4 SentAcknowledgements 0
scalar World.node[67].nic.mac1609_4 SNIRLostPackets 57
scalar World.node[67].nic.mac1609_4 RXTXLostPackets 1
scalar World.node[67].nic.mac1609_4 TotalLostPackets 58
scalar World.node[67].nic.mac1609_4 DroppedPacketsInMac 0
scalar World.node[67].nic.mac1609_4 TooLittleTime 0
scalar World.node[67].nic.mac1609_4 TimesIntoBackoff 284
scalar World.node[67].nic.mac1609_4 SlotsBackoff 2139
scalar World.node[67].nic.mac1609_4 NumInternalContention 0
scalar World.node[67].nic.mac1609_4 totalBusyTime 0.133116
scalar World.node[62].appl.middleware.CaService #cam_sent 637
scalar World.node[62].appl.middleware.ExampleService #full_proofs 3
scalar World.node[62].appl.middleware.ExampleService #half_proofs 1
scalar World.node[62].appl.middleware.ExampleService #failed_proofs 0
scalar World.node[62].appl.middleware.ExampleService #loc_proof_send 10
scalar World.node[62].nic.phy80211p busyTime 0.0006491923076923
scalar World.node[62].nic.mac1609_4 ReceivedUnicastPackets 0
scalar World.node[62].nic.mac1609_4 ReceivedBroadcasts 776
scalar World.node[62].nic.mac1609_4 SentPackets 647
scalar World.node[62].nic.mac1609_4 SentAcknowledgements 0
scalar World.node[62].nic.mac1609_4 SNIRLostPackets 52
scalar World.node[62].nic.mac1609_4 RXTXLostPackets 2
scalar World.node[62].nic.mac1609_4 TotalLostPackets 54
scalar World.node[62].nic.mac1609_4 DroppedPacketsInMac 0
scalar World.node[62].nic.mac1609_4 TooLittleTime 0
scalar World.node[62].nic.mac1609_4 TimesIntoBackoff 647
scalar World.node[62].nic.mac1609_4 SlotsBackoff 4937
scalar World.node[62].nic.mac1609_4 NumInternalContention 0
scalar World.node[62].nic.mac1609_4 totalBusyTime 0.240583004767
scalar World.node[75].appl.middleware.CaService #cam_sent 158
scalar World.node[75].appl.middleware.ExampleService #full_proofs 0
scalar World.node[75].appl.middleware.ExampleService #half_proofs 0
scalar World.node[75].appl.middleware.ExampleService #failed_proofs 0
scalar World.node[75].appl.middleware.ExampleService #loc_proof_send 1
scalar World.node[75].nic.phy80211p busyTime 0.00036391489361702
scalar World.node[75].nic.mac1609_4 ReceivedUnicastPackets 0
scalar World.node[75].nic.mac1609_4 ReceivedBroadcasts 96
scalar World.node[75].nic.mac1609_4 SentPackets 159
scalar World.node[75].nic.mac1609_4 SentAcknowledgements 0
scalar World.node[75].nic.mac1609_4 SNIRLostPackets 9
scalar World.node[75].nic.mac1609_4 RXTXLostPackets 0
scalar World.node[75].nic.mac1609_4 TotalLostPackets 9
scalar World.node[75].nic.mac1609_4 DroppedPacketsInMac 0
scalar World.node[75].nic.mac1609_4 TooLittleTime 0
scalar World.node[75].nic.mac1609_4 TimesIntoBackoff 159
scalar World.node[75].nic.mac1609_4 SlotsBackoff 1325
scalar World.node[75].nic.mac1609_4 NumInternalContention 0
scalar World.node[75].nic.mac1609_4 totalBusyTime 0.043159
scalar World.node[63].appl.middleware.CaService #cam_sent 523
scalar World.node[63].appl.middleware.ExampleService #full_proofs 2
scalar World.node[63].appl.middleware.ExampleService #half_proofs 1
scalar World.node[63].appl.middleware.ExampleService #failed_proofs 0
scalar World.node[63].appl.middleware.ExampleService #loc_proof_send 8
scalar World.node[63].nic.phy80211p busyTime 0.00075877511961722
scalar World.node[63].nic.mac1609_4 ReceivedUnicastPackets 0
scalar World.node[63].nic.mac1609_4 ReceivedBroadcasts 915
scalar World.node[63].nic.mac1609_4 SentPackets 531
scalar World.node[63].nic.mac1609_4 SentAcknowledgements 0
scalar World.node[63].nic.mac1609_4 SNIRLostPackets 58
scalar World.node[63].nic.mac1609_4 RXTXLostPackets 4
scalar World.node[63].nic.mac1609_4 TotalLostPackets 62
scalar World.node[63].nic.mac1609_4 DroppedPacketsInMac 0
scalar World.node[63].nic.mac1609_4 TooLittleTime 0
scalar World.node[63].nic.mac1609_4 TimesIntoBackoff 532
[...]
scalar World.node[222].nic.mac1609_4 TimesIntoBackoff 549
scalar World.node[222].nic.mac1609_4 SlotsBackoff 4265
scalar World.node[222].nic.mac1609_4 NumInternalContention 0
scalar World.node[222].nic.mac1609_4 totalBusyTime 0.337365
scalar World.node[224].appl.middleware.CaService #cam_sent 469
scalar World.node[224].appl.middleware.ExampleService #full_proofs 1
scalar World.node[224].appl.middleware.ExampleService #half_proofs 1
scalar World.node[224].appl.middleware.ExampleService #failed_proofs 0
scalar World.node[224].appl.middleware.ExampleService #loc_proof_send 8
scalar World.node[224].nic.phy80211p busyTime 0.0012176202531645
scalar World.node[224].nic.mac1609_4 ReceivedUnicastPackets 0
scalar World.node[224].nic.mac1609_4 ReceivedBroadcasts 1033
scalar World.node[224].nic.mac1609_4 SentPackets 477
scalar World.node[224].nic.mac1609_4 SentAcknowledgements 0
scalar World.node[224].nic.mac1609_4 SNIRLostPackets 148
scalar World.node[224].nic.mac1609_4 RXTXLostPackets 7
scalar World.node[224].nic.mac1609_4 TotalLostPackets 155
scalar World.node[224].nic.mac1609_4 DroppedPacketsInMac 0
scalar World.node[224].nic.mac1609_4 TooLittleTime 0
scalar World.node[224].nic.mac1609_4 TimesIntoBackoff 477
scalar World.node[224].nic.mac1609_4 SlotsBackoff 3446
scalar World.node[224].nic.mac1609_4 NumInternalContention 0
scalar World.node[224].nic.mac1609_4 totalBusyTime 0.270357081069
scalar World.node[232].appl.middleware.CaService #cam_sent 138
scalar World.node[232].appl.middleware.ExampleService #full_proofs 1
scalar World.node[232].appl.middleware.ExampleService #half_proofs 0
scalar World.node[232].appl.middleware.ExampleService #failed_proofs 0
scalar World.node[232].appl.middleware.ExampleService #loc_proof_send 2
scalar World.node[232].nic.phy80211p busyTime 0.00050536585365854
scalar World.node[232].nic.mac1609_4 ReceivedUnicastPackets 0
scalar World.node[232].nic.mac1609_4 ReceivedBroadcasts 114
scalar World.node[232].nic.mac1609_4 SentPackets 140
scalar World.node[232].nic.mac1609_4 SentAcknowledgements 0
scalar World.node[232].nic.mac1609_4 SNIRLostPackets 14
scalar World.node[232].nic.mac1609_4 RXTXLostPackets 0
scalar World.node[232].nic.mac1609_4 TotalLostPackets 14
scalar World.node[232].nic.mac1609_4 DroppedPacketsInMac 0
scalar World.node[232].nic.mac1609_4 TooLittleTime 0
scalar World.node[232].nic.mac1609_4 TimesIntoBackoff 141
scalar World.node[232].nic.mac1609_4 SlotsBackoff 1198
scalar World.node[232].nic.mac1609_4 NumInternalContention 0
scalar World.node[232].nic.mac1609_4 totalBusyTime 0.043596
scalar World.node[230].appl.middleware.CaService #cam_sent 278
scalar World.node[230].appl.middleware.ExampleService #full_proofs 1
scalar World.node[230].appl.middleware.ExampleService #half_proofs 1
scalar World.node[230].appl.middleware.ExampleService #failed_proofs 0
scalar World.node[230].appl.middleware.ExampleService #loc_proof_send 3
scalar World.node[230].nic.phy80211p busyTime 0.00078139759036145
scalar World.node[230].nic.mac1609_4 ReceivedUnicastPackets 0
scalar World.node[230].nic.mac1609_4 ReceivedBroadcasts 368
scalar World.node[230].nic.mac1609_4 SentPackets 281
scalar World.node[230].nic.mac1609_4 SentAcknowledgements 0
scalar World.node[230].nic.mac1609_4 SNIRLostPackets 32
scalar World.node[230].nic.mac1609_4 RXTXLostPackets 0
scalar World.node[230].nic.mac1609_4 TotalLostPackets 32
scalar World.node[230].nic.mac1609_4 DroppedPacketsInMac 0
scalar World.node[230].nic.mac1609_4 TooLittleTime 0
scalar World.node[230].nic.mac1609_4 TimesIntoBackoff 281
scalar World.node[230].nic.mac1609_4 SlotsBackoff 1984
scalar World.node[230].nic.mac1609_4 NumInternalContention 0
scalar World.node[230].nic.mac1609_4 totalBusyTime 0.110825
scalar World.node[227].appl.middleware.CaService #cam_sent 371
scalar World.node[227].appl.middleware.ExampleService #full_proofs 2
scalar World.node[227].appl.middleware.ExampleService #half_proofs 0
scalar World.node[227].appl.middleware.ExampleService #failed_proofs 0
scalar World.node[227].appl.middleware.ExampleService #loc_proof_send 4
scalar World.node[227].nic.phy80211p busyTime 0.00065576119402985
scalar World.node[227].nic.mac1609_4 ReceivedUnicastPackets 0
scalar World.node[227].nic.mac1609_4 ReceivedBroadcasts 473
scalar World.node[227].nic.mac1609_4 SentPackets 375
scalar World.node[227].nic.mac1609_4 SentAcknowledgements 0
scalar World.node[227].nic.mac1609_4 SNIRLostPackets 67
scalar World.node[227].nic.mac1609_4 RXTXLostPackets 1
scalar World.node[227].nic.mac1609_4 TotalLostPackets 68
scalar World.node[227].nic.mac1609_4 DroppedPacketsInMac 0
scalar World.node[227].nic.mac1609_4 TooLittleTime 0
scalar World.node[227].nic.mac1609_4 TimesIntoBackoff 375
scalar World.node[227].nic.mac1609_4 SlotsBackoff 2753
scalar World.node[227].nic.mac1609_4 NumInternalContention 0
scalar World.node[227].nic.mac1609_4 totalBusyTime 0.149375
scalar World.node[226].appl.middleware.CaService #cam_sent 384
scalar World.node[226].appl.middleware.ExampleService #full_proofs 0
scalar World.node[226].appl.middleware.ExampleService #half_proofs 1
scalar World.node[226].appl.middleware.ExampleService #failed_proofs 0
scalar World.node[226].appl.middleware.ExampleService #loc_proof_send 6
scalar World.node[226].nic.phy80211p busyTime 0.00081578666666666
scalar World.node[226].nic.mac1609_4 ReceivedUnicastPackets 0
scalar World.node[226].nic.mac1609_4 ReceivedBroadcasts 688
scalar World.node[226].nic.mac1609_4 SentPackets 390
scalar World.node[226].nic.mac1609_4 SentAcknowledgements 0
scalar World.node[226].nic.mac1609_4 SNIRLostPackets 65
scalar World.node[226].nic.mac1609_4 RXTXLostPackets 3
scalar World.node[226].nic.mac1609_4 TotalLostPackets 68
scalar World.node[226].nic.mac1609_4 DroppedPacketsInMac 0
scalar World.node[226].nic.mac1609_4 TooLittleTime 0
scalar World.node[226].nic.mac1609_4 TimesIntoBackoff 390
scalar World.node[226].nic.mac1609_4 SlotsBackoff 3201
scalar World.node[226].nic.mac1609_4 NumInternalContention 0
scalar World.node[226].nic.mac1609_4 totalBusyTime 0.185918
scalar World.node[228].appl.middleware.CaService #cam_sent 336
scalar World.node[228].appl.middleware.ExampleService #full_proofs 1
scalar World.node[228].appl.middleware.ExampleService #half_proofs 1
scalar World.node[228].appl.middleware.ExampleService #failed_proofs 0
scalar World.node[228].appl.middleware.ExampleService #loc_proof_send 8
scalar World.node[228].nic.phy80211p busyTime 0.0012343870967742
scalar World.node[228].nic.mac1609_4 ReceivedUnicastPackets 0
scalar World.node[228].nic.mac1609_4 ReceivedBroadcasts 764
scalar World.node[228].nic.mac1609_4 SentPackets 344
scalar World.node[228].nic.mac1609_4 SentAcknowledgements 0
scalar World.node[228].nic.mac1609_4 SNIRLostPackets 178
scalar World.node[228].nic.mac1609_4 RXTXLostPackets 2
scalar World.node[228].nic.mac1609_4 TotalLostPackets 180
scalar World.node[228].nic.mac1609_4 DroppedPacketsInMac 0
scalar World.node[228].nic.mac1609_4 TooLittleTime 0
scalar World.node[228].nic.mac1609_4 TimesIntoBackoff 345
scalar World.node[228].nic.mac1609_4 SlotsBackoff 2520
scalar World.node[228].nic.mac1609_4 NumInternalContention 0
scalar World.node[228].nic.mac1609_4 totalBusyTime 0.209024
scalar World.node[225].appl.middleware.CaService #cam_sent 472
scalar World.node[225].appl.middleware.ExampleService #full_proofs 1
scalar World.node[225].appl.middleware.ExampleService #half_proofs 2
scalar World.node[225].appl.middleware.ExampleService #failed_proofs 0
scalar World.node[225].appl.middleware.ExampleService #loc_proof_send 12
scalar World.node[225].nic.phy80211p busyTime 0.0011877752808989
scalar World.node[225].nic.mac1609_4 ReceivedUnicastPackets 0
scalar World.node[225].nic.mac1609_4 ReceivedBroadcasts 1272
scalar World.node[225].nic.mac1609_4 SentPackets 484
scalar World.node[225].nic.mac1609_4 SentAcknowledgements 0
scalar World.node[225].nic.mac1609_4 SNIRLostPackets 31
scalar World.node[225].nic.mac1609_4 RXTXLostPackets 4
scalar World.node[225].nic.mac1609_4 TotalLostPackets 35
scalar World.node[225].nic.mac1609_4 DroppedPacketsInMac 0
scalar World.node[225].nic.mac1609_4 TooLittleTime 0
scalar World.node[225].nic.mac1609_4 TimesIntoBackoff 484
scalar World.node[225].nic.mac1609_4 SlotsBackoff 3820
scalar World.node[225].nic.mac1609_4 NumInternalContention 0
scalar World.node[225].nic.mac1609_4 totalBusyTime 0.289540081673
scalar World.node[234].appl.middleware.CaService #cam_sent 296
scalar World.node[234].appl.middleware.ExampleService #full_proofs 1
scalar World.node[234].appl.middleware.ExampleService #half_proofs 0
scalar World.node[234].appl.middleware.ExampleService #failed_proofs 0
scalar World.node[234].appl.middleware.ExampleService #loc_proof_send 2
scalar World.node[234].nic.phy80211p busyTime 0.00043942268041237
scalar World.node[234].nic.mac1609_4 ReceivedUnicastPackets 0
scalar World.node[234].nic.mac1609_4 ReceivedBroadcasts 254
scalar World.node[234].nic.mac1609_4 SentPackets 298
scalar World.node[234].nic.mac1609_4 SentAcknowledgements 0
scalar World.node[234].nic.mac1609_4 SNIRLostPackets 8
scalar World.node[234].nic.mac1609_4 RXTXLostPackets 0
scalar World.node[234].nic.mac1609_4 TotalLostPackets 8
scalar World.node[234].nic.mac1609_4 DroppedPacketsInMac 0
scalar World.node[234].nic.mac1609_4 TooLittleTime 0
scalar World.node[234].nic.mac1609_4 TimesIntoBackoff 298
scalar World.node[234].nic.mac1609_4 SlotsBackoff 2120
scalar World.node[234].nic.mac1609_4 NumInternalContention 0
scalar World.node[234].nic.mac1609_4 totalBusyTime 0.091498
scalar World.node[237].appl.middleware.CaService #cam_sent 144
scalar World.node[237].appl.middleware.ExampleService #full_proofs 0
scalar World.node[237].appl.middleware.ExampleService #half_proofs 0
scalar World.node[237].appl.middleware.ExampleService #failed_proofs 1
scalar World.node[237].appl.middleware.ExampleService #loc_proof_send 2
scalar World.node[237].nic.phy80211p busyTime 0.00013748837209302
scalar World.node[237].nic.mac1609_4 ReceivedUnicastPackets 0
scalar World.node[237].nic.mac1609_4 ReceivedBroadcasts 34
scalar World.node[237].nic.mac1609_4 SentPackets 146
scalar World.node[237].nic.mac1609_4 SentAcknowledgements 0
scalar World.node[237].nic.mac1609_4 SNIRLostPackets 4
scalar World.node[237].nic.mac1609_4 RXTXLostPackets 0
scalar World.node[237].nic.mac1609_4 TotalLostPackets 4
scalar World.node[237].nic.mac1609_4 DroppedPacketsInMac 0
scalar World.node[237].nic.mac1609_4 TooLittleTime 0
scalar World.node[237].nic.mac1609_4 TimesIntoBackoff 146
scalar World.node[237].nic.mac1609_4 SlotsBackoff 1010
scalar World.node[237].nic.mac1609_4 NumInternalContention 0
scalar World.node[237].nic.mac1609_4 totalBusyTime 0.029666
scalar World.node[231].appl.middleware.CaService #cam_sent 388
scalar World.node[231].appl.middleware.ExampleService #full_proofs 2
scalar World.node[231].appl.middleware.ExampleService #half_proofs 0
scalar World.node[231].appl.middleware.ExampleService #failed_proofs 0
scalar World.node[231].appl.middleware.ExampleService #loc_proof_send 6
scalar World.node[231].nic.phy80211p busyTime 0.00066824161073825
scalar World.node[231].nic.mac1609_4 ReceivedUnicastPackets 0
scalar World.node[231].nic.mac1609_4 ReceivedBroadcasts 601
scalar World.node[231].nic.mac1609_4 SentPackets 394
scalar World.node[231].nic.mac1609_4 SentAcknowledgements 0
scalar World.node[231].nic.mac1609_4 SNIRLostPackets 10
scalar World.node[231].nic.mac1609_4 RXTXLostPackets 1
scalar World.node[231].nic.mac1609_4 TotalLostPackets 11
scalar World.node[231].nic.mac1609_4 DroppedPacketsInMac 0
scalar World.node[231].nic.mac1609_4 TooLittleTime 0
scalar World.node[231].nic.mac1609_4 TimesIntoBackoff 394
scalar World.node[231].nic.mac1609_4 SlotsBackoff 2815
scalar World.node[231].nic.mac1609_4 NumInternalContention 0
scalar World.node[231].nic.mac1609_4 totalBusyTime 0.164138006868
scalar World.node[235].appl.middleware.CaService #cam_sent 377
scalar World.node[235].appl.middleware.ExampleService #full_proofs 1
scalar World.node[235].appl.middleware.ExampleService #half_proofs 1
scalar World.node[235].appl.middleware.ExampleService #failed_proofs 0
scalar World.node[235].appl.middleware.ExampleService #loc_proof_send 3
scalar World.node[235].nic.phy80211p busyTime 0.00056941176470588
scalar World.node[235].nic.mac1609_4 ReceivedUnicastPackets 0
scalar World.node[235].nic.mac1609_4 ReceivedBroadcasts 402
scalar World.node[235].nic.mac1609_4 SentPackets 380
scalar World.node[235].nic.mac1609_4 SentAcknowledgements 0
scalar World.node[235].nic.mac1609_4 SNIRLostPackets 14
scalar World.node[235].nic.mac1609_4 RXTXLostPackets 0
scalar World.node[235].nic.mac1609_4 TotalLostPackets 14
scalar World.node[235].nic.mac1609_4 DroppedPacketsInMac 0
scalar World.node[235].nic.mac1609_4 TooLittleTime 0
scalar World.node[235].nic.mac1609_4 TimesIntoBackoff 380
scalar World.node[235].nic.mac1609_4 SlotsBackoff 2853
scalar World.node[235].nic.mac1609_4 NumInternalContention 0
scalar World.node[235].nic.mac1609_4 totalBusyTime 0.130028
scalar World.node[229].appl.middleware.CaService #cam_sent 604
scalar World.node[229].appl.middleware.ExampleService #full_proofs 2
scalar World.node[229].appl.middleware.ExampleService #half_proofs 2
scalar World.node[229].appl.middleware.ExampleService #failed_proofs 0
scalar World.node[229].appl.middleware.ExampleService #loc_proof_send 10
scalar World.node[229].nic.phy80211p busyTime 0.0009100487804878
scalar World.node[229].nic.mac1609_4 ReceivedUnicastPackets 0
scalar World.node[229].nic.mac1609_4 ReceivedBroadcasts 1113
scalar World.node[229].nic.mac1609_4 SentPackets 614
scalar World.node[229].nic.mac1609_4 SentAcknowledgements 0
scalar World.node[229].nic.mac1609_4 SNIRLostPackets 37
scalar World.node[229].nic.mac1609_4 RXTXLostPackets 1
scalar World.node[229].nic.mac1609_4 TotalLostPackets 38
scalar World.node[229].nic.mac1609_4 DroppedPacketsInMac 0
scalar World.node[229].nic.mac1609_4 TooLittleTime 0
scalar World.node[229].nic.mac1609_4 TimesIntoBackoff 614
scalar World.node[229].nic.mac1609_4 SlotsBackoff 4397
scalar World.node[229].nic.mac1609_4 NumInternalContention 0
scalar World.node[229].nic.mac1609_4 totalBusyTime 0.286054
scalar World.node[238].appl.middleware.CaService #cam_sent 409
scalar World.node[238].appl.middleware.ExampleService #full_proofs 1
scalar World.node[238].appl.middleware.ExampleService #half_proofs 0
scalar World.node[238].appl.middleware.ExampleService #failed_proofs 1
scalar World.node[238].appl.middleware.ExampleService #loc_proof_send 7
scalar World.node[238].nic.phy80211p busyTime 0.00067643835616439
scalar World.node[238].nic.mac1609_4 ReceivedUnicastPackets 0
scalar World.node[238].nic.mac1609_4 ReceivedBroadcasts 584
scalar World.node[238].nic.mac1609_4 SentPackets 416
scalar World.node[238].nic.mac1609_4 SentAcknowledgements 0
scalar World.node[238].nic.mac1609_4 SNIRLostPackets 21
scalar World.node[238].nic.mac1609_4 RXTXLostPackets 3
scalar World.node[238].nic.mac1609_4 TotalLostPackets 24
scalar World.node[238].nic.mac1609_4 DroppedPacketsInMac 0
scalar World.node[238].nic.mac1609_4 TooLittleTime 0
scalar World.node[238].nic.mac1609_4 TimesIntoBackoff 416
scalar World.node[238].nic.mac1609_4 SlotsBackoff 3089
scalar World.node[238].nic.mac1609_4 NumInternalContention 0
scalar World.node[238].nic.mac1609_4 totalBusyTime 0.166512
scalar World.node[233].appl.middleware.CaService #cam_sent 617
scalar World.node[233].appl.middleware.ExampleService #full_proofs 2
scalar World.node[233].appl.middleware.ExampleService #half_proofs 2
scalar World.node[233].appl.middleware.ExampleService #failed_proofs 0
scalar World.node[233].appl.middleware.ExampleService #loc_proof_send 12
scalar World.node[233].nic.phy80211p busyTime 0.00075662978723404
scalar World.node[233].nic.mac1609_4 ReceivedUnicastPackets 0
scalar World.node[233].nic.mac1609_4 ReceivedBroadcasts 1078
scalar World.node[233].nic.mac1609_4 SentPackets 629
scalar World.node[233].nic.mac1609_4 SentAcknowledgements 0
scalar World.node[233].nic.mac1609_4 SNIRLostPackets 15
scalar World.node[233].nic.mac1609_4 RXTXLostPackets 5
scalar World.node[233].nic.mac1609_4 TotalLostPackets 20
scalar World.node[233].nic.mac1609_4 DroppedPacketsInMac 0
scalar World.node[233].nic.mac1609_4 TooLittleTime 0
scalar World.node[233].nic.mac1609_4 TimesIntoBackoff 631
scalar World.node[233].nic.mac1609_4 SlotsBackoff 4717
scalar World.node[233].nic.mac1609_4 NumInternalContention 0
scalar World.node[233].nic.mac1609_4 totalBusyTime 0.280629035146
scalar World.node[236].appl.middleware.CaService #cam_sent 404
scalar World.node[236].appl.middleware.ExampleService #full_proofs 1
scalar World.node[236].appl.middleware.ExampleService #half_proofs 1
scalar World.node[236].appl.middleware.ExampleService #failed_proofs 0
scalar World.node[236].appl.middleware.ExampleService #loc_proof_send 4
scalar World.node[236].nic.phy80211p busyTime 0.00023075555555556
scalar World.node[236].nic.mac1609_4 ReceivedUnicastPackets 0
scalar World.node[236].nic.mac1609_4 ReceivedBroadcasts 253
scalar World.node[236].nic.mac1609_4 SentPackets 408
scalar World.node[236].nic.mac1609_4 SentAcknowledgements 0
scalar World.node[236].nic.mac1609_4 SNIRLostPackets 2
scalar World.node[236].nic.mac1609_4 RXTXLostPackets 1
scalar World.node[236].nic.mac1609_4 TotalLostPackets 3
scalar World.node[236].nic.mac1609_4 DroppedPacketsInMac 0
scalar World.node[236].nic.mac1609_4 TooLittleTime 0
scalar World.node[236].nic.mac1609_4 TimesIntoBackoff 409
scalar World.node[236].nic.mac1609_4 SlotsBackoff 3310
scalar World.node[236].nic.mac1609_4 NumInternalContention 0
scalar World.node[236].nic.mac1609_4 totalBusyTime 0.108696163276
scalar World.node[239].appl.middleware.CaService #cam_sent 412
scalar World.node[239].appl.middleware.ExampleService #full_proofs 2
scalar World.node[239].appl.middleware.ExampleService #half_proofs 1
scalar World.node[239].appl.middleware.ExampleService #failed_proofs 0
scalar World.node[239].appl.middleware.ExampleService #loc_proof_send 8
scalar World.node[239].nic.phy80211p busyTime 0.00061041860465116
scalar World.node[239].nic.mac1609_4 ReceivedUnicastPackets 0
scalar World.node[239].nic.mac1609_4 ReceivedBroadcasts 636
scalar World.node[239].nic.mac1609_4 SentPackets 420
scalar World.node[239].nic.mac1609_4 SentAcknowledgements 0
scalar World.node[239].nic.mac1609_4 SNIRLostPackets 9
scalar World.node[239].nic.mac1609_4 RXTXLostPackets 4
scalar World.node[239].nic.mac1609_4 TotalLostPackets 13
scalar World.node[239].nic.mac1609_4 DroppedPacketsInMac 0
scalar World.node[239].nic.mac1609_4 TooLittleTime 0
scalar World.node[239].nic.mac1609_4 TimesIntoBackoff 421
scalar World.node[239].nic.mac1609_4 SlotsBackoff 3200
scalar World.node[239].nic.mac1609_4 NumInternalContention 0
scalar World.node[239].nic.mac1609_4 totalBusyTime 0.173604014784
scalar World.node[240].appl.middleware.CaService #cam_sent 436
scalar World.node[240].appl.middleware.ExampleService #full_proofs 0
scalar World.node[240].appl.middleware.ExampleService #half_proofs 1
scalar World.node[240].appl.middleware.ExampleService #failed_proofs 0
scalar World.node[240].appl.middleware.ExampleService #loc_proof_send 4
scalar World.node[240].nic.phy80211p busyTime 0.00034208383233533
scalar World.node[240].nic.mac1609_4 ReceivedUnicastPackets 0
scalar World.node[240].nic.mac1609_4 ReceivedBroadcasts 349
scalar World.node[240].nic.mac1609_4 SentPackets 440
scalar World.node[240].nic.mac1609_4 SentAcknowledgements 0
scalar World.node[240].nic.mac1609_4 SNIRLostPackets 1
scalar World.node[240].nic.mac1609_4 RXTXLostPackets 4
scalar World.node[240].nic.mac1609_4 TotalLostPackets 5
scalar World.node[240].nic.mac1609_4 DroppedPacketsInMac 0
scalar World.node[240].nic.mac1609_4 TooLittleTime 0
scalar World.node[240].nic.mac1609_4 TimesIntoBackoff 442
scalar World.node[240].nic.mac1609_4 SlotsBackoff 3397
scalar World.node[240].nic.mac1609_4 NumInternalContention 0
scalar World.node[240].nic.mac1609_4 totalBusyTime 0.129392

