version 2
run Obstacles-1-20191117-12:20:37-19092
attr configname Obstacles
attr datetime 20191117-12:20:37
attr experiment Obstacles
attr inifile omnetpp.ini
attr iterationvars $0=40
attr iterationvarsf 40-
attr measurement $0=40
attr network artery.veins.World
attr processid 19092
attr repetition 0
attr replication #0
attr resultdir results
attr runnumber 1
attr seedset 1
param *.traci.launcher.sumocfg "\"Obstacles/run.sumo.cfg\""
param *.withObstacles true
param *.obstacles.obstacles "xmldoc(\"config_obstacles.xml\", \"//AnalogueModel[@type='SimpleObstacleShadowing']/obstacles\")"
param *.node[*].nic.mac1609_4.txPower 20mW
param *.node[*].nic.phy80211p.decider "xmldoc(\"config_obstacles.xml\")"
param *.node[*].nic.phy80211p.analogueModels "xmldoc(\"config_obstacles.xml\")"
param *.node[*].applType "\"artery.veins.ApplicationLayer\""
param *.node[*].appl.middleware.updateInterval 0.1s
param *.node[*].appl.middleware.datetime "\"2013-06-01 12:35:00\""
param *.node[*].appl.middleware.services "xmldoc(\"services.xml\")"
param *.node[*].appl.middleware.ExampleService.DecisionLogic 40
param *.node[*].appl.middleware.ExampleService.NeighboringWindow 60
param *.traci.core.version -1
param *.traci.launcher.typename "\"PosixLauncher\""
param *.playgroundSizeX 4000m
param *.playgroundSizeY 4000m
param *.playgroundSizeZ 50m
param *.connectionManager.maxInterfDist 1500m
param *.connectionManager.sendDirect true
param *.connectionManager.coreDebug false

scalar World.node[2].appl.middleware.CaService #cam_sent 56
scalar World.node[2].appl.middleware.ExampleService #full_proofs 0
scalar World.node[2].appl.middleware.ExampleService #half_proofs 0
scalar World.node[2].appl.middleware.ExampleService #failed_proofs 1
scalar World.node[2].appl.middleware.ExampleService #loc_proof_send 1
scalar World.node[2].nic.phy80211p busyTime 2.7111111111111e-05
scalar World.node[2].nic.mac1609_4 ReceivedUnicastPackets 0
scalar World.node[2].nic.mac1609_4 ReceivedBroadcasts 3
scalar World.node[2].nic.mac1609_4 SentPackets 57
scalar World.node[2].nic.mac1609_4 SentAcknowledgements 0
scalar World.node[2].nic.mac1609_4 SNIRLostPackets 0
scalar World.node[2].nic.mac1609_4 RXTXLostPackets 0
scalar World.node[2].nic.mac1609_4 TotalLostPackets 0
scalar World.node[2].nic.mac1609_4 DroppedPacketsInMac 0
scalar World.node[2].nic.mac1609_4 TooLittleTime 0
scalar World.node[2].nic.mac1609_4 TimesIntoBackoff 57
scalar World.node[2].nic.mac1609_4 SlotsBackoff 411
scalar World.node[2].nic.mac1609_4 NumInternalContention 0
scalar World.node[2].nic.mac1609_4 totalBusyTime 0.009801
scalar World.node[3].appl.middleware.CaService #cam_sent 94
scalar World.node[3].appl.middleware.ExampleService #full_proofs 1
scalar World.node[3].appl.middleware.ExampleService #half_proofs 0
scalar World.node[3].appl.middleware.ExampleService #failed_proofs 0
scalar World.node[3].appl.middleware.ExampleService #loc_proof_send 1
scalar World.node[3].nic.phy80211p busyTime 0.00024971428571429
scalar World.node[3].nic.mac1609_4 ReceivedUnicastPackets 0
scalar World.node[3].nic.mac1609_4 ReceivedBroadcasts 39
scalar World.node[3].nic.mac1609_4 SentPackets 95
scalar World.node[3].nic.mac1609_4 SentAcknowledgements 0
scalar World.node[3].nic.mac1609_4 SNIRLostPackets 4
scalar World.node[3].nic.mac1609_4 RXTXLostPackets 0
scalar World.node[3].nic.mac1609_4 TotalLostPackets 4
scalar World.node[3].nic.mac1609_4 DroppedPacketsInMac 0
scalar World.node[3].nic.mac1609_4 TooLittleTime 0
scalar World.node[3].nic.mac1609_4 TimesIntoBackoff 95
scalar World.node[3].nic.mac1609_4 SlotsBackoff 658
scalar World.node[3].nic.mac1609_4 NumInternalContention 0
scalar World.node[3].nic.mac1609_4 totalBusyTime 0.022535
scalar World.node[9].appl.middleware.CaService #cam_sent 104
scalar World.node[9].appl.middleware.ExampleService #full_proofs 0
scalar World.node[9].appl.middleware.ExampleService #half_proofs 0
scalar World.node[9].appl.middleware.ExampleService #failed_proofs 0
scalar World.node[9].appl.middleware.ExampleService #loc_proof_send 1
scalar World.node[9].nic.phy80211p busyTime 0.00043587096774194
scalar World.node[9].nic.mac1609_4 ReceivedUnicastPackets 0
scalar World.node[9].nic.mac1609_4 ReceivedBroadcasts 57
scalar World.node[9].nic.mac1609_4 SentPackets 105
scalar World.node[9].nic.mac1609_4 SentAcknowledgements 0
scalar World.node[9].nic.mac1609_4 SNIRLostPackets 26
scalar World.node[9].nic.mac1609_4 RXTXLostPackets 0
scalar World.node[9].nic.mac1609_4 TotalLostPackets 26
scalar World.node[9].nic.mac1609_4 DroppedPacketsInMac 0
scalar World.node[9].nic.mac1609_4 TooLittleTime 0
scalar World.node[9].nic.mac1609_4 TimesIntoBackoff 105
scalar World.node[9].nic.mac1609_4 SlotsBackoff 714
scalar World.node[9].nic.mac1609_4 NumInternalContention 0
scalar World.node[9].nic.mac1609_4 totalBusyTime 0.030697
scalar World.node[21].appl.middleware.CaService #cam_sent 34
scalar World.node[21].appl.middleware.ExampleService #full_proofs 0
scalar World.node[21].appl.middleware.ExampleService #half_proofs 0
scalar World.node[21].appl.middleware.ExampleService #failed_proofs 0
scalar World.node[21].appl.middleware.ExampleService #loc_proof_send 0
scalar World.node[21].nic.phy80211p busyTime 0.0028512
scalar World.node[21].nic.mac1609_4 ReceivedUnicastPackets 0
scalar World.node[21].nic.mac1609_4 ReceivedBroadcasts 168
scalar World.node[21].nic.mac1609_4 SentPackets 34
scalar World.node[21].nic.mac1609_4 SentAcknowledgements 0
scalar World.node[21].nic.mac1609_4 SNIRLostPackets 6
scalar World.node[21].nic.mac1609_4 RXTXLostPackets 0
scalar World.node[21].nic.mac1609_4 TotalLostPackets 6
scalar World.node[21].nic.mac1609_4 DroppedPacketsInMac 0
scalar World.node[21].nic.mac1609_4 TooLittleTime 0
scalar World.node[21].nic.mac1609_4 TimesIntoBackoff 34
scalar World.node[21].nic.mac1609_4 SlotsBackoff 243
scalar World.node[21].nic.mac1609_4 NumInternalContention 0
scalar World.node[21].nic.mac1609_4 totalBusyTime 0.034098
scalar World.node[0].appl.middleware.CaService #cam_sent 208
scalar World.node[0].appl.middleware.ExampleService #full_proofs 0
scalar World.node[0].appl.middleware.ExampleService #half_proofs 1
scalar World.node[0].appl.middleware.ExampleService #failed_proofs 0
scalar World.node[0].appl.middleware.ExampleService #loc_proof_send 4
scalar World.node[0].nic.phy80211p busyTime 0.0010519245283019
scalar World.node[0].nic.mac1609_4 ReceivedUnicastPackets 0
scalar World.node[0].nic.mac1609_4 ReceivedBroadcasts 663
scalar World.node[0].nic.mac1609_4 SentPackets 212
scalar World.node[0].nic.mac1609_4 SentAcknowledgements 0
scalar World.node[0].nic.mac1609_4 SNIRLostPackets 21
scalar World.node[0].nic.mac1609_4 RXTXLostPackets 1
scalar World.node[0].nic.mac1609_4 TotalLostPackets 22
scalar World.node[0].nic.mac1609_4 DroppedPacketsInMac 0
scalar World.node[0].nic.mac1609_4 TooLittleTime 0
scalar World.node[0].nic.mac1609_4 TimesIntoBackoff 212
scalar World.node[0].nic.mac1609_4 SlotsBackoff 1736
scalar World.node[0].nic.mac1609_4 NumInternalContention 0
scalar World.node[0].nic.mac1609_4 totalBusyTime 0.146284
scalar World.node[1].appl.middleware.CaService #cam_sent 274
scalar World.node[1].appl.middleware.ExampleService #full_proofs 0
scalar World.node[1].appl.middleware.ExampleService #half_proofs 2
scalar World.node[1].appl.middleware.ExampleService #failed_proofs 0
scalar World.node[1].appl.middleware.ExampleService #loc_proof_send 6
scalar World.node[1].nic.phy80211p busyTime 0.0012944761904762
scalar World.node[1].nic.mac1609_4 ReceivedUnicastPackets 0
scalar World.node[1].nic.mac1609_4 ReceivedBroadcasts 814
scalar World.node[1].nic.mac1609_4 SentPackets 280
scalar World.node[1].nic.mac1609_4 SentAcknowledgements 0
scalar World.node[1].nic.mac1609_4 SNIRLostPackets 19
scalar World.node[1].nic.mac1609_4 RXTXLostPackets 4
scalar World.node[1].nic.mac1609_4 TotalLostPackets 23
scalar World.node[1].nic.mac1609_4 DroppedPacketsInMac 0
scalar World.node[1].nic.mac1609_4 TooLittleTime 0
scalar World.node[1].nic.mac1609_4 TimesIntoBackoff 280
scalar World.node[1].nic.mac1609_4 SlotsBackoff 2023
scalar World.node[1].nic.mac1609_4 NumInternalContention 0
scalar World.node[1].nic.mac1609_4 totalBusyTime 0.18112
scalar World.node[6].appl.middleware.CaService #cam_sent 342
scalar World.node[6].appl.middleware.ExampleService #full_proofs 0
scalar World.node[6].appl.middleware.ExampleService #half_proofs 1
scalar World.node[6].appl.middleware.ExampleService #failed_proofs 1
scalar World.node[6].appl.middleware.ExampleService #loc_proof_send 7
scalar World.node[6].nic.phy80211p busyTime 0.0011136806722689
scalar World.node[6].nic.mac1609_4 ReceivedUnicastPackets 0
scalar World.node[6].nic.mac1609_4 ReceivedBroadcasts 741
scalar World.node[6].nic.mac1609_4 SentPackets 349
scalar World.node[6].nic.mac1609_4 SentAcknowledgements 0
scalar World.node[6].nic.mac1609_4 SNIRLostPackets 76
scalar World.node[6].nic.mac1609_4 RXTXLostPackets 7
scalar World.node[6].nic.mac1609_4 TotalLostPackets 83
scalar World.node[6].nic.mac1609_4 DroppedPacketsInMac 0
scalar World.node[6].nic.mac1609_4 TooLittleTime 0
scalar World.node[6].nic.mac1609_4 TimesIntoBackoff 350
scalar World.node[6].nic.mac1609_4 SlotsBackoff 2662
scalar World.node[6].nic.mac1609_4 NumInternalContention 0
scalar World.node[6].nic.mac1609_4 totalBusyTime 0.188813003286
scalar World.node[19].appl.middleware.CaService #cam_sent 210
scalar World.node[19].appl.middleware.ExampleService #full_proofs 0
scalar World.node[19].appl.middleware.ExampleService #half_proofs 1
scalar World.node[19].appl.middleware.ExampleService #failed_proofs 1
scalar World.node[19].appl.middleware.ExampleService #loc_proof_send 8
scalar World.node[19].nic.phy80211p busyTime 0.0030211578947368
scalar World.node[19].nic.mac1609_4 ReceivedUnicastPackets 0
scalar World.node[19].nic.mac1609_4 ReceivedBroadcasts 1307
scalar World.node[19].nic.mac1609_4 SentPackets 218
scalar World.node[19].nic.mac1609_4 SentAcknowledgements 0
scalar World.node[19].nic.mac1609_4 SNIRLostPackets 114
scalar World.node[19].nic.mac1609_4 RXTXLostPackets 4
scalar World.node[19].nic.mac1609_4 TotalLostPackets 118
scalar World.node[19].nic.mac1609_4 DroppedPacketsInMac 0
scalar World.node[19].nic.mac1609_4 TooLittleTime 0
scalar World.node[19].nic.mac1609_4 TimesIntoBackoff 218
scalar World.node[19].nic.mac1609_4 SlotsBackoff 1578
scalar World.node[19].nic.mac1609_4 NumInternalContention 0
scalar World.node[19].nic.mac1609_4 totalBusyTime 0.263506
scalar World.node[22].appl.middleware.CaService #cam_sent 188
scalar World.node[22].appl.middleware.ExampleService #full_proofs 1
scalar World.node[22].appl.middleware.ExampleService #half_proofs 0
scalar World.node[22].appl.middleware.ExampleService #failed_proofs 0
scalar World.node[22].appl.middleware.ExampleService #loc_proof_send 8
scalar World.node[22].nic.phy80211p busyTime 0.0030881428571428
scalar World.node[22].nic.mac1609_4 ReceivedUnicastPackets 0
scalar World.node[22].nic.mac1609_4 ReceivedBroadcasts 975
scalar World.node[22].nic.mac1609_4 SentPackets 196
scalar World.node[22].nic.mac1609_4 SentAcknowledgements 0
scalar World.node[22].nic.mac1609_4 SNIRLostPackets 94
scalar World.node[22].nic.mac1609_4 RXTXLostPackets 10
scalar World.node[22].nic.mac1609_4 TotalLostPackets 104
scalar World.node[22].nic.mac1609_4 DroppedPacketsInMac 0
scalar World.node[22].nic.mac1609_4 TooLittleTime 0
scalar World.node[22].nic.mac1609_4 TimesIntoBackoff 197
scalar World.node[22].nic.mac1609_4 SlotsBackoff 1517
scalar World.node[22].nic.mac1609_4 NumInternalContention 0
scalar World.node[22].nic.mac1609_4 totalBusyTime 0.204444015241
scalar World.node[13].appl.middleware.CaService #cam_sent 337
scalar World.node[13].appl.middleware.ExampleService #full_proofs 1
scalar World.node[13].appl.middleware.ExampleService #half_proofs 1
scalar World.node[13].appl.middleware.ExampleService #failed_proofs 0
scalar World.node[13].appl.middleware.ExampleService #loc_proof_send 8
scalar World.node[13].nic.phy80211p busyTime 0.0024415855855856
scalar World.node[13].nic.mac1609_4 ReceivedUnicastPackets 0
scalar World.node[13].nic.mac1609_4 ReceivedBroadcasts 1579
scalar World.node[13].nic.mac1609_4 SentPackets 345
scalar World.node[13].nic.mac1609_4 SentAcknowledgements 0
scalar World.node[13].nic.mac1609_4 SNIRLostPackets 93
scalar World.node[13].nic.mac1609_4 RXTXLostPackets 12
scalar World.node[13].nic.mac1609_4 TotalLostPackets 105
scalar World.node[13].nic.mac1609_4 DroppedPacketsInMac 0
scalar World.node[13].nic.mac1609_4 TooLittleTime 0
scalar World.node[13].nic.mac1609_4 TimesIntoBackoff 346
scalar World.node[13].nic.mac1609_4 SlotsBackoff 2470
scalar World.node[13].nic.mac1609_4 NumInternalContention 0
scalar World.node[13].nic.mac1609_4 totalBusyTime 0.326097293858
scalar World.node[8].appl.middleware.CaService #cam_sent 352
scalar World.node[8].appl.middleware.ExampleService #full_proofs 1
scalar World.node[8].appl.middleware.ExampleService #half_proofs 1
scalar World.node[8].appl.middleware.ExampleService #failed_proofs 0
scalar World.node[8].appl.middleware.ExampleService #loc_proof_send 13
scalar World.node[8].nic.phy80211p busyTime 0.0022368235294117
scalar World.node[8].nic.mac1609_4 ReceivedUnicastPackets 0
scalar World.node[8].nic.mac1609_4 ReceivedBroadcasts 1796
scalar World.node[8].nic.mac1609_4 SentPackets 365
scalar World.node[8].nic.mac1609_4 SentAcknowledgements 0
scalar World.node[8].nic.mac1609_4 SNIRLostPackets 82
scalar World.node[8].nic.mac1609_4 RXTXLostPackets 17
scalar World.node[8].nic.mac1609_4 TotalLostPackets 99
scalar World.node[8].nic.mac1609_4 DroppedPacketsInMac 0
scalar World.node[8].nic.mac1609_4 TooLittleTime 0
scalar World.node[8].nic.mac1609_4 TimesIntoBackoff 382
scalar World.node[8].nic.mac1609_4 SlotsBackoff 2914
scalar World.node[8].nic.mac1609_4 NumInternalContention 0
scalar World.node[8].nic.mac1609_4 totalBusyTime 0.361597151671
scalar World.node[35].appl.middleware.CaService #cam_sent 144
scalar World.node[35].appl.middleware.ExampleService #full_proofs 1
scalar World.node[35].appl.middleware.ExampleService #half_proofs 0
scalar World.node[35].appl.middleware.ExampleService #failed_proofs 0
scalar World.node[35].appl.middleware.ExampleService #loc_proof_send 4
scalar World.node[35].nic.phy80211p busyTime 0.0021577674418605
scalar World.node[35].nic.mac1609_4 ReceivedUnicastPackets 0
scalar World.node[35].nic.mac1609_4 ReceivedBroadcasts 497
scalar World.node[35].nic.mac1609_4 SentPackets 148
scalar World.node[35].nic.mac1609_4 SentAcknowledgements 0
scalar World.node[35].nic.mac1609_4 SNIRLostPackets 81
scalar World.node[35].nic.mac1609_4 RXTXLostPackets 5
scalar World.node[35].nic.mac1609_4 TotalLostPackets 86
scalar World.node[35].nic.mac1609_4 DroppedPacketsInMac 0
scalar World.node[35].nic.mac1609_4 TooLittleTime 0
scalar World.node[35].nic.mac1609_4 TimesIntoBackoff 149
scalar World.node[35].nic.mac1609_4 SlotsBackoff 1085
scalar World.node[35].nic.mac1609_4 NumInternalContention 0
scalar World.node[35].nic.mac1609_4 totalBusyTime 0.115588013477
scalar World.node[15].appl.middleware.CaService #cam_sent 409
scalar World.node[15].appl.middleware.ExampleService #full_proofs 0
scalar World.node[15].appl.middleware.ExampleService #half_proofs 2
scalar World.node[15].appl.middleware.ExampleService #failed_proofs 0
scalar World.node[15].appl.middleware.ExampleService #loc_proof_send 17
scalar World.node[15].nic.phy80211p busyTime 0.0028449552238806
scalar World.node[15].nic.mac1609_4 ReceivedUnicastPackets 0
scalar World.node[15].nic.mac1609_4 ReceivedBroadcasts 2271
scalar World.node[15].nic.mac1609_4 SentPackets 426
scalar World.node[15].nic.mac1609_4 SentAcknowledgements 0
scalar World.node[15].nic.mac1609_4 SNIRLostPackets 84
scalar World.node[15].nic.mac1609_4 RXTXLostPackets 34
scalar World.node[15].nic.mac1609_4 TotalLostPackets 118
scalar World.node[15].nic.mac1609_4 DroppedPacketsInMac 0
scalar World.node[15].nic.mac1609_4 TooLittleTime 0
scalar World.node[15].nic.mac1609_4 TimesIntoBackoff 429
scalar World.node[15].nic.mac1609_4 SlotsBackoff 3449
scalar World.node[15].nic.mac1609_4 NumInternalContention 0
scalar World.node[15].nic.mac1609_4 totalBusyTime 0.447602101004
scalar World.node[16].appl.middleware.CaService #cam_sent 351
scalar World.node[16].appl.middleware.ExampleService #full_proofs 1
scalar World.node[16].appl.middleware.ExampleService #half_proofs 1
scalar World.node[16].appl.middleware.ExampleService #failed_proofs 0
scalar World.node[16].appl.middleware.ExampleService #loc_proof_send 14
scalar World.node[16].nic.phy80211p busyTime 0.0027199389312977
scalar World.node[16].nic.mac1609_4 ReceivedUnicastPackets 0
scalar World.node[16].nic.mac1609_4 ReceivedBroadcasts 2075
scalar World.node[16].nic.mac1609_4 SentPackets 365
scalar World.node[16].nic.mac1609_4 SentAcknowledgements 0
scalar World.node[16].nic.mac1609_4 SNIRLostPackets 128
scalar World.node[16].nic.mac1609_4 RXTXLostPackets 26
scalar World.node[16].nic.mac1609_4 TotalLostPackets 154
scalar World.node[16].nic.mac1609_4 DroppedPacketsInMac 0
scalar World.node[16].nic.mac1609_4 TooLittleTime 0
scalar World.node[16].nic.mac1609_4 TimesIntoBackoff 369
scalar World.node[16].nic.mac1609_4 SlotsBackoff 2648
scalar World.node[16].nic.mac1609_4 NumInternalContention 0
scalar World.node[16].nic.mac1609_4 totalBusyTime 0.413389059976
scalar World.node[40].appl.middleware.CaService #cam_sent 92
scalar World.node[40].appl.middleware.ExampleService #full_proofs 0
scalar World.node[40].appl.middleware.ExampleService #half_proofs 0
scalar World.node[40].appl.middleware.ExampleService #failed_proofs 0
scalar World.node[40].appl.middleware.ExampleService #loc_proof_send 5
scalar World.node[40].nic.phy80211p busyTime 0.0036992592592593
scalar World.node[40].nic.mac1609_4 ReceivedUnicastPackets 0
scalar World.node[40].nic.mac1609_4 ReceivedBroadcasts 584
scalar World.node[40].nic.mac1609_4 SentPackets 97
scalar World.node[40].nic.mac1609_4 SentAcknowledgements 0
scalar World.node[40].nic.mac1609_4 SNIRLostPackets 40
scalar World.node[40].nic.mac1609_4 RXTXLostPackets 18
scalar World.node[40].nic.mac1609_4 TotalLostPackets 58
scalar World.node[40].nic.mac1609_4 DroppedPacketsInMac 0
scalar World.node[40].nic.mac1609_4 TooLittleTime 0
scalar World.node[40].nic.mac1609_4 TimesIntoBackoff 97
scalar World.node[40].nic.mac1609_4 SlotsBackoff 739
scalar World.node[40].nic.mac1609_4 NumInternalContention 0
scalar World.node[40].nic.mac1609_4 totalBusyTime 0.113401726243
scalar World.node[14].appl.middleware.CaService #cam_sent 482
scalar World.node[14].appl.middleware.ExampleService #full_proofs 1
scalar World.node[14].appl.middleware.ExampleService #half_proofs 0
scalar World.node[14].appl.middleware.ExampleService #failed_proofs 0
scalar World.node[14].appl.middleware.ExampleService #loc_proof_send 14
scalar World.node[14].nic.phy80211p busyTime 0.0026027222222222
scalar World.node[14].nic.mac1609_4 ReceivedUnicastPackets 0
scalar World.node[14].nic.mac1609_4 ReceivedBroadcasts 2138
scalar World.node[14].nic.mac1609_4 SentPackets 496
scalar World.node[14].nic.mac1609_4 SentAcknowledgements 0
scalar World.node[14].nic.mac1609_4 SNIRLostPackets 178
scalar World.node[14].nic.mac1609_4 RXTXLostPackets 38
scalar World.node[14].nic.mac1609_4 TotalLostPackets 216
scalar World.node[14].nic.mac1609_4 DroppedPacketsInMac 0
scalar World.node[14].nic.mac1609_4 TooLittleTime 0
scalar World.node[14].nic.mac1609_4 TimesIntoBackoff 502
scalar World.node[14].nic.mac1609_4 SlotsBackoff 3860
scalar World.node[14].nic.mac1609_4 NumInternalContention 0
scalar World.node[14].nic.mac1609_4 totalBusyTime 0.453008336941
scalar World.node[10].appl.middleware.CaService #cam_sent 399
scalar World.node[10].appl.middleware.ExampleService #full_proofs 0
scalar World.node[10].appl.middleware.ExampleService #half_proofs 2
scalar World.node[10].appl.middleware.ExampleService #failed_proofs 0
scalar World.node[10].appl.middleware.ExampleService #loc_proof_send 16
scalar World.node[10].nic.phy80211p busyTime 0.0030943899371069
scalar World.node[10].nic.mac1609_4 ReceivedUnicastPackets 0
scalar World.node[10].nic.mac1609_4 ReceivedBroadcasts 2940
scalar World.node[10].nic.mac1609_4 SentPackets 415
scalar World.node[10].nic.mac1609_4 SentAcknowledgements 0
scalar World.node[10].nic.mac1609_4 SNIRLostPackets 101
scalar World.node[10].nic.mac1609_4 RXTXLostPackets 42
scalar World.node[10].nic.mac1609_4 TotalLostPackets 143
scalar World.node[10].nic.mac1609_4 DroppedPacketsInMac 0
scalar World.node[10].nic.mac1609_4 TooLittleTime 0
scalar World.node[10].nic.mac1609_4 TimesIntoBackoff 416
scalar World.node[10].nic.mac1609_4 SlotsBackoff 3210
scalar World.node[10].nic.mac1609_4 NumInternalContention 0
scalar World.node[10].nic.mac1609_4 totalBusyTime 0.556911028355
scalar World.node[7].appl.middleware.CaService #cam_sent 484
scalar World.node[7].appl.middleware.ExampleService #full_proofs 1
scalar World.node[7].appl.middleware.ExampleService #half_proofs 2
scalar World.node[7].appl.middleware.ExampleService #failed_proofs 0
scalar World.node[7].appl.middleware.ExampleService #loc_proof_send 13
scalar World.node[7].nic.phy80211p busyTime 0.0017804745762712
scalar World.node[7].nic.mac1609_4 ReceivedUnicastPackets 0
scalar World.node[7].nic.mac1609_4 ReceivedBroadcasts 1751
scalar World.node[7].nic.mac1609_4 SentPackets 497
scalar World.node[7].nic.mac1609_4 SentAcknowledgements 0
scalar World.node[7].nic.mac1609_4 SNIRLostPackets 198
scalar World.node[7].nic.mac1609_4 RXTXLostPackets 26
scalar World.node[7].nic.mac1609_4 TotalLostPackets 224
scalar World.node[7].nic.mac1609_4 DroppedPacketsInMac 0
scalar World.node[7].nic.mac1609_4 TooLittleTime 0
scalar World.node[7].nic.mac1609_4 TimesIntoBackoff 498
scalar World.node[7].nic.mac1609_4 SlotsBackoff 3828
scalar World.node[7].nic.mac1609_4 NumInternalContention 0
scalar World.node[7].nic.mac1609_4 totalBusyTime 0.392657903521
scalar World.node[30].appl.middleware.CaService #cam_sent 275
scalar World.node[30].appl.middleware.ExampleService #full_proofs 0
scalar World.node[30].appl.middleware.ExampleService #half_proofs 1
scalar World.node[30].appl.middleware.ExampleService #failed_proofs 0
scalar World.node[30].appl.middleware.ExampleService #loc_proof_send 10
scalar World.node[30].nic.phy80211p busyTime 0.0036064175824175
scalar World.node[30].nic.mac1609_4 ReceivedUnicastPackets 0
scalar World.node[30].nic.mac1609_4 ReceivedBroadcasts 1851
scalar World.node[30].nic.mac1609_4 SentPackets 285
scalar World.node[30].nic.mac1609_4 SentAcknowledgements 0
scalar World.node[30].nic.mac1609_4 SNIRLostPackets 179
scalar World.node[30].nic.mac1609_4 RXTXLostPackets 32
scalar World.node[30].nic.mac1609_4 TotalLostPackets 211
scalar World.node[30].nic.mac1609_4 DroppedPacketsInMac 0
scalar World.node[30].nic.mac1609_4 TooLittleTime 0
scalar World.node[30].nic.mac1609_4 TimesIntoBackoff 286
scalar World.node[30].nic.mac1609_4 SlotsBackoff 2177
scalar World.node[30].nic.mac1609_4 NumInternalContention 0
scalar World.node[30].nic.mac1609_4 totalBusyTime 0.37153340154
scalar World.node[27].appl.middleware.CaService #cam_sent 374
scalar World.node[27].appl.middleware.ExampleService #full_proofs 0
scalar World.node[27].appl.middleware.ExampleService #half_proofs 2
scalar World.node[27].appl.middleware.ExampleService #failed_proofs 0
scalar World.node[27].appl.middleware.ExampleService #loc_proof_send 14
scalar World.node[27].nic.phy80211p busyTime 0.003128806722689
scalar World.node[27].nic.mac1609_4 ReceivedUnicastPackets 0
scalar World.node[27].nic.mac1609_4 ReceivedBroadcasts 2059
scalar World.node[27].nic.mac1609_4 SentPackets 388
scalar World.node[27].nic.mac1609_4 SentAcknowledgements 0
scalar World.node[27].nic.mac1609_4 SNIRLostPackets 250
scalar World.node[27].nic.mac1609_4 RXTXLostPackets 46
scalar World.node[27].nic.mac1609_4 TotalLostPackets 296
scalar World.node[27].nic.mac1609_4 DroppedPacketsInMac 0
scalar World.node[27].nic.mac1609_4 TooLittleTime 0
scalar World.node[27].nic.mac1609_4 TimesIntoBackoff 389
scalar World.node[27].nic.mac1609_4 SlotsBackoff 2897
scalar World.node[27].nic.mac1609_4 NumInternalContention 0
scalar World.node[27].nic.mac1609_4 totalBusyTime 0.431948520245
scalar World.node[33].appl.middleware.CaService #cam_sent 252
scalar World.node[33].appl.middleware.ExampleService #full_proofs 0
scalar World.node[33].appl.middleware.ExampleService #half_proofs 1
scalar World.node[33].appl.middleware.ExampleService #failed_proofs 0
scalar World.node[33].appl.middleware.ExampleService #loc_proof_send 11
scalar World.node[33].nic.phy80211p busyTime 0.0040542222222222
scalar World.node[33].nic.mac1609_4 ReceivedUnicastPackets 0
scalar World.node[33].nic.mac1609_4 ReceivedBroadcasts 2234
scalar World.node[33].nic.mac1609_4 SentPackets 263
scalar World.node[33].nic.mac1609_4 SentAcknowledgements 0
scalar World.node[33].nic.mac1609_4 SNIRLostPackets 256
scalar World.node[33].nic.mac1609_4 RXTXLostPackets 33
scalar World.node[33].nic.mac1609_4 TotalLostPackets 289
scalar World.node[33].nic.mac1609_4 DroppedPacketsInMac 0
scalar World.node[33].nic.mac1609_4 TooLittleTime 0
scalar World.node[33].nic.mac1609_4 TimesIntoBackoff 264
scalar World.node[33].nic.mac1609_4 SlotsBackoff 1996
scalar World.node[33].nic.mac1609_4 NumInternalContention 0
scalar World.node[33].nic.mac1609_4 totalBusyTime 0.439775252889
scalar World.node[31].appl.middleware.CaService #cam_sent 373
scalar World.node[31].appl.middleware.ExampleService #full_proofs 1
scalar World.node[31].appl.middleware.ExampleService #half_proofs 1
scalar World.node[31].appl.middleware.ExampleService #failed_proofs 0
scalar World.node[31].appl.middleware.ExampleService #loc_proof_send 13
scalar World.node[31].nic.phy80211p busyTime 0.002744
scalar World.node[31].nic.mac1609_4 ReceivedUnicastPackets 0
scalar World.node[31].nic.mac1609_4 ReceivedBroadcasts 1852
scalar World.node[31].nic.mac1609_4 SentPackets 386
scalar World.node[31].nic.mac1609_4 SentAcknowledgements 0
scalar World.node[31].nic.mac1609_4 SNIRLostPackets 155
scalar World.node[31].nic.mac1609_4 RXTXLostPackets 32
scalar World.node[31].nic.mac1609_4 TotalLostPackets 187
scalar World.node[31].nic.mac1609_4 DroppedPacketsInMac 0
scalar World.node[31].nic.mac1609_4 TooLittleTime 0
scalar World.node[31].nic.mac1609_4 TimesIntoBackoff 386
scalar World.node[31].nic.mac1609_4 SlotsBackoff 2958
scalar World.node[31].nic.mac1609_4 NumInternalContention 0
scalar World.node[31].nic.mac1609_4 totalBusyTime 0.382355526741
scalar World.node[24].appl.middleware.CaService #cam_sent 424
scalar World.node[24].appl.middleware.ExampleService #full_proofs 0
scalar World.node[24].appl.middleware.ExampleService #half_proofs 2
scalar World.node[24].appl.middleware.ExampleService #failed_proofs 1
scalar World.node[24].appl.middleware.ExampleService #loc_proof_send 12
scalar World.node[24].nic.phy80211p busyTime 0.0025121714285714
scalar World.node[24].nic.mac1609_4 ReceivedUnicastPackets 0
scalar World.node[24].nic.mac1609_4 ReceivedBroadcasts 2067
scalar World.node[24].nic.mac1609_4 SentPackets 436
scalar World.node[24].nic.mac1609_4 SentAcknowledgements 0
scalar World.node[24].nic.mac1609_4 SNIRLostPackets 108
scalar World.node[24].nic.mac1609_4 RXTXLostPackets 15
scalar World.node[24].nic.mac1609_4 TotalLostPackets 123
scalar World.node[24].nic.mac1609_4 DroppedPacketsInMac 0
scalar World.node[24].nic.mac1609_4 TooLittleTime 0
scalar World.node[24].nic.mac1609_4 TimesIntoBackoff 439
scalar World.node[24].nic.mac1609_4 SlotsBackoff 3353
scalar World.node[24].nic.mac1609_4 NumInternalContention 0
scalar World.node[24].nic.mac1609_4 totalBusyTime 0.421068033831
scalar World.node[12].appl.middleware.CaService #cam_sent 641
scalar World.node[12].appl.middleware.ExampleService #full_proofs 2
scalar World.node[12].appl.middleware.ExampleService #half_proofs 2
scalar World.node[12].appl.middleware.ExampleService #failed_proofs 0
scalar World.node[12].appl.middleware.ExampleService #loc_proof_send 21
scalar World.node[12].nic.phy80211p busyTime 0.0025273165829145
scalar World.node[12].nic.mac1609_4 ReceivedUnicastPackets 0
scalar World.node[12].nic.mac1609_4 ReceivedBroadcasts 2802
scalar World.node[12].nic.mac1609_4 SentPackets 662
scalar World.node[12].nic.mac1609_4 SentAcknowledgements 0
scalar World.node[12].nic.mac1609_4 SNIRLostPackets 316
scalar World.node[12].nic.mac1609_4 RXTXLostPackets 31
scalar World.node[12].nic.mac1609_4 TotalLostPackets 347
scalar World.node[12].nic.mac1609_4 DroppedPacketsInMac 0
scalar World.node[12].nic.mac1609_4 TooLittleTime 0
scalar World.node[12].nic.mac1609_4 TimesIntoBackoff 663
scalar World.node[12].nic.mac1609_4 SlotsBackoff 4903
scalar World.node[12].nic.mac1609_4 NumInternalContention 0
scalar World.node[12].nic.mac1609_4 totalBusyTime 0.604591201975
scalar World.node[53].appl.middleware.CaService #cam_sent 108
scalar World.node[53].appl.middleware.ExampleService #full_proofs 0
scalar World.node[53].appl.middleware.ExampleService #half_proofs 1
scalar World.node[53].appl.middleware.ExampleService #failed_proofs 0
scalar World.node[53].appl.middleware.ExampleService #loc_proof_send 4
scalar World.node[53].nic.phy80211p busyTime 0.00101125
scalar World.node[53].nic.mac1609_4 ReceivedUnicastPackets 0
scalar World.node[53].nic.mac1609_4 ReceivedBroadcasts 174
scalar World.node[53].nic.mac1609_4 SentPackets 112
scalar World.node[53].nic.mac1609_4 SentAcknowledgements 0
scalar World.node[53].nic.mac1609_4 SNIRLostPackets 27
scalar World.node[53].nic.mac1609_4 RXTXLostPackets 1
scalar World.node[53].nic.mac1609_4 TotalLostPackets 28
scalar World.node[53].nic.mac1609_4 DroppedPacketsInMac 0
scalar World.node[53].nic.mac1609_4 TooLittleTime 0
scalar World.node[53].nic.mac1609_4 TimesIntoBackoff 112
scalar World.node[53].nic.mac1609_4 SlotsBackoff 780
scalar World.node[53].nic.mac1609_4 NumInternalContention 0
scalar World.node[53].nic.mac1609_4 totalBusyTime 0.050416
scalar World.node[26].appl.middleware.CaService #cam_sent 411
scalar World.node[26].appl.middleware.ExampleService #full_proofs 0
scalar World.node[26].appl.middleware.ExampleService #half_proofs 1
scalar World.node[26].appl.middleware.ExampleService #failed_proofs 1
scalar World.node[26].appl.middleware.ExampleService #loc_proof_send 15
scalar World.node[26].nic.phy80211p busyTime 0.0026835616438356
scalar World.node[26].nic.mac1609_4 ReceivedUnicastPackets 0
scalar World.node[26].nic.mac1609_4 ReceivedBroadcasts 2154
scalar World.node[26].nic.mac1609_4 SentPackets 426
scalar World.node[26].nic.mac1609_4 SentAcknowledgements 0
scalar World.node[26].nic.mac1609_4 SNIRLostPackets 280
scalar World.node[26].nic.mac1609_4 RXTXLostPackets 30
scalar World.node[26].nic.mac1609_4 TotalLostPackets 310
scalar World.node[26].nic.mac1609_4 DroppedPacketsInMac 0
scalar World.node[26].nic.mac1609_4 TooLittleTime 0
scalar World.node[26].nic.mac1609_4 TimesIntoBackoff 427
scalar World.node[26].nic.mac1609_4 SlotsBackoff 3091
scalar World.node[26].nic.mac1609_4 NumInternalContention 0
scalar World.node[26].nic.mac1609_4 totalBusyTime 0.45485
scalar World.node[38].appl.middleware.CaService #cam_sent 320
scalar World.node[38].appl.middleware.ExampleService #full_proofs 0
scalar World.node[38].appl.middleware.ExampleService #half_proofs 2
scalar World.node[38].appl.middleware.ExampleService #failed_proofs 0
scalar World.node[38].appl.middleware.ExampleService #loc_proof_send 13
scalar World.node[38].nic.phy80211p busyTime 0.00300912
scalar World.node[38].nic.mac1609_4 ReceivedUnicastPackets 0
scalar World.node[38].nic.mac1609_4 ReceivedBroadcasts 1670
scalar World.node[38].nic.mac1609_4 SentPackets 333
scalar World.node[38].nic.mac1609_4 SentAcknowledgements 0
scalar World.node[38].nic.mac1609_4 SNIRLostPackets 210
scalar World.node[38].nic.mac1609_4 RXTXLostPackets 12
scalar World.node[38].nic.mac1609_4 TotalLostPackets 222
scalar World.node[38].nic.mac1609_4 DroppedPacketsInMac 0
scalar World.node[38].nic.mac1609_4 TooLittleTime 0
scalar World.node[38].nic.mac1609_4 TimesIntoBackoff 334
scalar World.node[38].nic.mac1609_4 SlotsBackoff 2382
scalar World.node[38].nic.mac1609_4 NumInternalContention 0
scalar World.node[38].nic.mac1609_4 totalBusyTime 0.349181576399
scalar World.node[63].appl.middleware.CaService #cam_sent 38
scalar World.node[63].appl.middleware.ExampleService #full_proofs 0
scalar World.node[63].appl.middleware.ExampleService #half_proofs 0
scalar World.node[63].appl.middleware.ExampleService #failed_proofs 0
scalar World.node[63].appl.middleware.ExampleService #loc_proof_send 3
scalar World.node[63].nic.phy80211p busyTime 0.00348
scalar World.node[63].nic.mac1609_4 ReceivedUnicastPackets 0
scalar World.node[63].nic.mac1609_4 ReceivedBroadcasts 199
scalar World.node[63].nic.mac1609_4 SentPackets 41
scalar World.node[63].nic.mac1609_4 SentAcknowledgements 0
scalar World.node[63].nic.mac1609_4 SNIRLostPackets 47
scalar World.node[63].nic.mac1609_4 RXTXLostPackets 0
scalar World.node[63].nic.mac1609_4 TotalLostPackets 47
scalar World.node[63].nic.mac1609_4 DroppedPacketsInMac 0
scalar World.node[63].nic.mac1609_4 TooLittleTime 0
scalar World.node[63].nic.mac1609_4 TimesIntoBackoff 41
scalar World.node[63].nic.mac1609_4 SlotsBackoff 273
scalar World.node[63].nic.mac1609_4 NumInternalContention 0
scalar World.node[63].nic.mac1609_4 totalBusyTime 0.042257304052
scalar World.node[54].appl.middleware.CaService #cam_sent 192
scalar World.node[54].appl.middleware.ExampleService #full_proofs 0
scalar World.node[54].appl.middleware.ExampleService #half_proofs 1
scalar World.node[54].appl.middleware.ExampleService #failed_proofs 0
scalar World.node[54].appl.middleware.ExampleService #loc_proof_send 13
scalar World.node[54].nic.phy80211p busyTime 0.0052304561403508
scalar World.node[54].nic.mac1609_4 ReceivedUnicastPackets 0
scalar World.node[54].nic.mac1609_4 ReceivedBroadcasts 1671
scalar World.node[54].nic.mac1609_4 SentPackets 205
scalar World.node[54].nic.mac1609_4 SentAcknowledgements 0
scalar World.node[54].nic.mac1609_4 SNIRLostPackets 188
scalar World.node[54].nic.mac1609_4 RXTXLostPackets 36
scalar World.node[54].nic.mac1609_4 TotalLostPackets 224
scalar World.node[54].nic.mac1609_4 DroppedPacketsInMac 0
scalar World.node[54].nic.mac1609_4 TooLittleTime 0
scalar World.node[54].nic.mac1609_4 TimesIntoBackoff 209
scalar World.node[54].nic.mac1609_4 SlotsBackoff 1540
scalar World.node[54].nic.mac1609_4 NumInternalContention 0
scalar World.node[54].nic.mac1609_4 totalBusyTime 0.322861510842
scalar World.node[20].appl.middleware.CaService #cam_sent 501
scalar World.node[20].appl.middleware.ExampleService #full_proofs 1
scalar World.node[20].appl.middleware.ExampleService #half_proofs 2
scalar World.node[20].appl.middleware.ExampleService #failed_proofs 0
scalar World.node[20].appl.middleware.ExampleService #loc_proof_send 26
scalar World.node[20].nic.phy80211p busyTime 0.0032515736040609
scalar World.node[20].nic.mac1609_4 ReceivedUnicastPackets 0
scalar World.node[20].nic.mac1609_4 ReceivedBroadcasts 3761
scalar World.node[20].nic.mac1609_4 SentPackets 527
scalar World.node[20].nic.mac1609_4 SentAcknowledgements 0
scalar World.node[20].nic.mac1609_4 SNIRLostPackets 210
scalar World.node[20].nic.mac1609_4 RXTXLostPackets 69
scalar World.node[20].nic.mac1609_4 TotalLostPackets 279
scalar World.node[20].nic.mac1609_4 DroppedPacketsInMac 0
scalar World.node[20].nic.mac1609_4 TooLittleTime 0
scalar World.node[20].nic.mac1609_4 TimesIntoBackoff 528
scalar World.node[20].nic.mac1609_4 SlotsBackoff 3887
scalar World.node[20].nic.mac1609_4 NumInternalContention 0
scalar World.node[20].nic.mac1609_4 totalBusyTime 0.719415664441
scalar World.node[4].appl.middleware.CaService #cam_sent 722
scalar World.node[4].appl.middleware.ExampleService #full_proofs 0
scalar World.node[4].appl.middleware.ExampleService #half_proofs 1
scalar World.node[4].appl.middleware.ExampleService #failed_proofs 2
scalar World.node[4].appl.middleware.ExampleService #loc_proof_send 16
scalar World.node[4].nic.phy80211p busyTime 0.0020578604651162
scalar World.node[4].nic.mac1609_4 ReceivedUnicastPackets 0
scalar World.node[4].nic.mac1609_4 ReceivedBroadcasts 2903
scalar World.node[4].nic.mac1609_4 SentPackets 738
scalar World.node[4].nic.mac1609_4 SentAcknowledgements 0
scalar World.node[4].nic.mac1609_4 SNIRLostPackets 379
scalar World.node[4].nic.mac1609_4 RXTXLostPackets 10
scalar World.node[4].nic.mac1609_4 TotalLostPackets 389
scalar World.node[4].nic.mac1609_4 DroppedPacketsInMac 0
scalar World.node[4].nic.mac1609_4 TooLittleTime 0
scalar World.node[4].nic.mac1609_4 TimesIntoBackoff 741
scalar World.node[4].nic.mac1609_4 SlotsBackoff 5774
scalar World.node[4].nic.mac1609_4 NumInternalContention 0
scalar World.node[4].nic.mac1609_4 totalBusyTime 0.648002031447
scalar World.node[36].appl.middleware.CaService #cam_sent 314
scalar World.node[36].appl.middleware.ExampleService #full_proofs 0
scalar World.node[36].appl.middleware.ExampleService #half_proofs 2
scalar World.node[36].appl.middleware.ExampleService #failed_proofs 0
scalar World.node[36].appl.middleware.ExampleService #loc_proof_send 18
scalar World.node[36].nic.phy80211p busyTime 0.0038295999999999
scalar World.node[36].nic.mac1609_4 ReceivedUnicastPackets 0
scalar World.node[36].nic.mac1609_4 ReceivedBroadcasts 2870
scalar World.node[36].nic.mac1609_4 SentPackets 332
scalar World.node[36].nic.mac1609_4 SentAcknowledgements 0
scalar World.node[36].nic.mac1609_4 SNIRLostPackets 216
scalar World.node[36].nic.mac1609_4 RXTXLostPackets 66
scalar World.node[36].nic.mac1609_4 TotalLostPackets 282
scalar World.node[36].nic.mac1609_4 DroppedPacketsInMac 0
scalar World.node[36].nic.mac1609_4 TooLittleTime 0
scalar World.node[36].nic.mac1609_4 TimesIntoBackoff 332
scalar World.node[36].nic.mac1609_4 SlotsBackoff 2512
scalar World.node[36].nic.mac1609_4 NumInternalContention 0
scalar World.node[36].nic.mac1609_4 totalBusyTime 0.540304599901
scalar World.node[25].appl.middleware.CaService #cam_sent 507
scalar World.node[25].appl.middleware.ExampleService #full_proofs 0
scalar World.node[25].appl.middleware.ExampleService #half_proofs 2
scalar World.node[25].appl.middleware.ExampleService #failed_proofs 1
scalar World.node[25].appl.middleware.ExampleService #loc_proof_send 22
scalar World.node[25].nic.phy80211p busyTime 0.0034844545454545
scalar World.node[25].nic.mac1609_4 ReceivedUnicastPackets 0
scalar World.node[25].nic.mac1609_4 ReceivedBroadcasts 3435
scalar World.node[25].nic.mac1609_4 SentPackets 529
scalar World.node[25].nic.mac1609_4 SentAcknowledgements 0
scalar World.node[25].nic.mac1609_4 SNIRLostPackets 368
scalar World.node[25].nic.mac1609_4 RXTXLostPackets 54
scalar World.node[25].nic.mac1609_4 TotalLostPackets 422
scalar World.node[25].nic.mac1609_4 DroppedPacketsInMac 0
scalar World.node[25].nic.mac1609_4 TooLittleTime 0
scalar World.node[25].nic.mac1609_4 TimesIntoBackoff 535
scalar World.node[25].nic.mac1609_4 SlotsBackoff 4058
scalar World.node[25].nic.mac1609_4 NumInternalContention 0
scalar World.node[25].nic.mac1609_4 totalBusyTime 0.693265252489
scalar World.node[11].appl.middleware.CaService #cam_sent 663
scalar World.node[11].appl.middleware.ExampleService #full_proofs 0
scalar World.node[11].appl.middleware.ExampleService #half_proofs 3
scalar World.node[11].appl.middleware.ExampleService #failed_proofs 1
scalar World.node[11].appl.middleware.ExampleService #loc_proof_send 29
scalar World.node[11].nic.phy80211p busyTime 0.0027149211618257
scalar World.node[11].nic.mac1609_4 ReceivedUnicastPackets 0
scalar World.node[11].nic.mac1609_4 ReceivedBroadcasts 3551
scalar World.node[11].nic.mac1609_4 SentPackets 692
scalar World.node[11].nic.mac1609_4 SentAcknowledgements 0
scalar World.node[11].nic.mac1609_4 SNIRLostPackets 507
scalar World.node[11].nic.mac1609_4 RXTXLostPackets 45
scalar World.node[11].nic.mac1609_4 TotalLostPackets 552
scalar World.node[11].nic.mac1609_4 DroppedPacketsInMac 0
scalar World.node[11].nic.mac1609_4 TooLittleTime 0
scalar World.node[11].nic.mac1609_4 TimesIntoBackoff 693
scalar World.node[11].nic.mac1609_4 SlotsBackoff 5154
scalar World.node[11].nic.mac1609_4 NumInternalContention 0
scalar World.node[11].nic.mac1609_4 totalBusyTime 0.759052651063
scalar World.node[18].appl.middleware.CaService #cam_sent 538
scalar World.node[18].appl.middleware.ExampleService #full_proofs 1
scalar World.node[18].appl.middleware.ExampleService #half_proofs 2
scalar World.node[18].appl.middleware.ExampleService #failed_proofs 0
scalar World.node[18].appl.middleware.ExampleService #loc_proof_send 22
scalar World.node[18].nic.phy80211p busyTime 0.0023577251184834
scalar World.node[18].nic.mac1609_4 ReceivedUnicastPackets 0
scalar World.node[18].nic.mac1609_4 ReceivedBroadcasts 2886
scalar World.node[18].nic.mac1609_4 SentPackets 560
scalar World.node[18].nic.mac1609_4 SentAcknowledgements 0
scalar World.node[18].nic.mac1609_4 SNIRLostPackets 198
scalar World.node[18].nic.mac1609_4 RXTXLostPackets 76
scalar World.node[18].nic.mac1609_4 TotalLostPackets 274
scalar World.node[18].nic.mac1609_4 DroppedPacketsInMac 0
scalar World.node[18].nic.mac1609_4 TooLittleTime 0
scalar World.node[18].nic.mac1609_4 TimesIntoBackoff 562
scalar World.node[18].nic.mac1609_4 SlotsBackoff 4217
scalar World.node[18].nic.mac1609_4 NumInternalContention 0
scalar World.node[18].nic.mac1609_4 totalBusyTime 0.58644048827
scalar World.node[28].appl.middleware.CaService #cam_sent 419
scalar World.node[28].appl.middleware.ExampleService #full_proofs 1
scalar World.node[28].appl.middleware.ExampleService #half_proofs 2
scalar World.node[28].appl.middleware.ExampleService #failed_proofs 0
scalar World.node[28].appl.middleware.ExampleService #loc_proof_send 25
scalar World.node[28].nic.phy80211p busyTime 0.0033447356321838
scalar World.node[28].nic.mac1609_4 ReceivedUnicastPackets 0
scalar World.node[28].nic.mac1609_4 ReceivedBroadcasts 3154
scalar World.node[28].nic.mac1609_4 SentPackets 444
scalar World.node[28].nic.mac1609_4 SentAcknowledgements 0
scalar World.node[28].nic.mac1609_4 SNIRLostPackets 454
scalar World.node[28].nic.mac1609_4 RXTXLostPackets 79
scalar World.node[28].nic.mac1609_4 TotalLostPackets 533
scalar World.node[28].nic.mac1609_4 DroppedPacketsInMac 0
scalar World.node[28].nic.mac1609_4 TooLittleTime 0
scalar World.node[28].nic.mac1609_4 TimesIntoBackoff 445
scalar World.node[28].nic.mac1609_4 SlotsBackoff 3454
scalar World.node[28].nic.mac1609_4 NumInternalContention 0
scalar World.node[28].nic.mac1609_4 totalBusyTime 0.646724995894
scalar World.node[56].appl.middleware.CaService #cam_sent 169
scalar World.node[56].appl.middleware.ExampleService #full_proofs 1
scalar World.node[56].appl.middleware.ExampleService #half_proofs 0
scalar World.node[56].appl.middleware.ExampleService #failed_proofs 0
scalar World.node[56].appl.middleware.ExampleService #loc_proof_send 10
scalar World.node[56].nic.phy80211p busyTime 0.0028614444444444
scalar World.node[56].nic.mac1609_4 ReceivedUnicastPackets 0
scalar World.node[56].nic.mac1609_4 ReceivedBroadcasts 1203
scalar World.node[56].nic.mac1609_4 SentPackets 179
scalar World.node[56].nic.mac1609_4 SentAcknowledgements 0
scalar World.node[56].nic.mac1609_4 SNIRLostPackets 71
scalar World.node[56].nic.mac1609_4 RXTXLostPackets 45
scalar World.node[56].nic.mac1609_4 TotalLostPackets 116
scalar World.node[56].nic.mac1609_4 DroppedPacketsInMac 0
scalar World.node[56].nic.mac1609_4 TooLittleTime 0
scalar World.node[56].nic.mac1609_4 TimesIntoBackoff 180
scalar World.node[56].nic.mac1609_4 SlotsBackoff 1416
scalar World.node[56].nic.mac1609_4 NumInternalContention 0
scalar World.node[56].nic.mac1609_4 totalBusyTime 0.233899047068
scalar World.node[5].appl.middleware.CaService #cam_sent 866
scalar World.node[5].appl.middleware.ExampleService #full_proofs 1
scalar World.node[5].appl.middleware.ExampleService #half_proofs 2
scalar World.node[5].appl.middleware.ExampleService #failed_proofs 1
scalar World.node[5].appl.middleware.ExampleService #loc_proof_send 28
scalar World.node[5].nic.phy80211p busyTime 0.0022616811594202
scalar World.node[5].nic.mac1609_4 ReceivedUnicastPackets 0
scalar World.node[5].nic.mac1609_4 ReceivedBroadcasts 3607
scalar World.node[5].nic.mac1609_4 SentPackets 894
scalar World.node[5].nic.mac1609_4 SentAcknowledgements 0
scalar World.node[5].nic.mac1609_4 SNIRLostPackets 264
scalar World.node[5].nic.mac1609_4 RXTXLostPackets 52
scalar World.node[5].nic.mac1609_4 TotalLostPackets 316
scalar World.node[5].nic.mac1609_4 DroppedPacketsInMac 0
scalar World.node[5].nic.mac1609_4 TooLittleTime 0
scalar World.node[5].nic.mac1609_4 TimesIntoBackoff 896
scalar World.node[5].nic.mac1609_4 SlotsBackoff 6769
scalar World.node[5].nic.mac1609_4 NumInternalContention 0
scalar World.node[5].nic.mac1609_4 totalBusyTime 0.762494247092
scalar World.node[68].appl.middleware.CaService #cam_sent 92
scalar World.node[68].appl.middleware.ExampleService #full_proofs 0
scalar World.node[68].appl.middleware.ExampleService #half_proofs 0
scalar World.node[68].appl.middleware.ExampleService #failed_proofs 0
scalar World.node[68].appl.middleware.ExampleService #loc_proof_send 0
scalar World.node[68].nic.phy80211p busyTime 0.00075644444444445
scalar World.node[68].nic.mac1609_4 ReceivedUnicastPackets 0
scalar World.node[68].nic.mac1609_4 ReceivedBroadcasts 114
scalar World.node[68].nic.mac1609_4 SentPackets 92
scalar World.node[68].nic.mac1609_4 SentAcknowledgements 0
scalar World.node[68].nic.mac1609_4 SNIRLostPackets 11
scalar World.node[68].nic.mac1609_4 RXTXLostPackets 0
scalar World.node[68].nic.mac1609_4 TotalLostPackets 11
scalar World.node[68].nic.mac1609_4 DroppedPacketsInMac 0
scalar World.node[68].nic.mac1609_4 TooLittleTime 0
scalar World.node[68].nic.mac1609_4 TimesIntoBackoff 92
scalar World.node[68].nic.mac1609_4 SlotsBackoff 728
scalar World.node[68].nic.mac1609_4 NumInternalContention 0
scalar World.node[68].nic.mac1609_4 totalBusyTime 0.035524
scalar World.node[39].appl.middleware.CaService #cam_sent 424
scalar World.node[39].appl.middleware.ExampleService #full_proofs 0
scalar World.node[39].appl.middleware.ExampleService #half_proofs 1
scalar World.node[39].appl.middleware.ExampleService #failed_proofs 1
scalar World.node[39].appl.middleware.ExampleService #loc_proof_send 21
scalar World.node[39].nic.phy80211p busyTime 0.003267572327044
scalar World.node[39].nic.mac1609_4 ReceivedUnicastPackets 0
scalar World.node[39].nic.mac1609_4 ReceivedBroadcasts 3034
scalar World.node[39].nic.mac1609_4 SentPackets 445
scalar World.node[39].nic.mac1609_4 SentAcknowledgements 0
scalar World.node[39].nic.mac1609_4 SNIRLostPackets 191
scalar World.node[39].nic.mac1609_4 RXTXLostPackets 85
scalar World.node[39].nic.mac1609_4 TotalLostPackets 276
scalar World.node[39].nic.mac1609_4 DroppedPacketsInMac 0
scalar World.node[39].nic.mac1609_4 TooLittleTime 0
scalar World.node[39].nic.mac1609_4 TimesIntoBackoff 447
scalar World.node[39].nic.mac1609_4 SlotsBackoff 3322
scalar World.node[39].nic.mac1609_4 NumInternalContention 0
scalar World.node[39].nic.mac1609_4 totalBusyTime 0.584789160219
scalar World.node[67].appl.middleware.CaService #cam_sent 172
scalar World.node[67].appl.middleware.ExampleService #full_proofs 0
scalar World.node[67].appl.middleware.ExampleService #half_proofs 1
scalar World.node[67].appl.middleware.ExampleService #failed_proofs 0
scalar World.node[67].appl.middleware.ExampleService #loc_proof_send 1
scalar World.node[67].nic.phy80211p busyTime 0.00054886274509804
scalar World.node[67].nic.mac1609_4 ReceivedUnicastPackets 0
scalar World.node[67].nic.mac1609_4 ReceivedBroadcasts 134
scalar World.node[67].nic.mac1609_4 SentPackets 173
scalar World.node[67].nic.mac1609_4 SentAcknowledgements 0
scalar World.node[67].nic.mac1609_4 SNIRLostPackets 43
scalar World.node[67].nic.mac1609_4 RXTXLostPackets 0
scalar World.node[67].nic.mac1609_4 TotalLostPackets 43
scalar World.node[67].nic.mac1609_4 DroppedPacketsInMac 0
scalar World.node[67].nic.mac1609_4 TooLittleTime 0
scalar World.node[67].nic.mac1609_4 TimesIntoBackoff 173
scalar World.node[67].nic.mac1609_4 SlotsBackoff 1224
scalar World.node[67].nic.mac1609_4 NumInternalContention 0
scalar World.node[67].nic.mac1609_4 totalBusyTime 0.055757
scalar World.node[57].appl.middleware.CaService #cam_sent 236
scalar World.node[57].appl.middleware.ExampleService #full_proofs 0
scalar World.node[57].appl.middleware.ExampleService #half_proofs 2
scalar World.node[57].appl.middleware.ExampleService #failed_proofs 0
scalar World.node[57].appl.middleware.ExampleService #loc_proof_send 23
scalar World.node[57].nic.phy80211p busyTime 0.0053781481481481
scalar World.node[57].nic.mac1609_4 ReceivedUnicastPackets 0
scalar World.node[57].nic.mac1609_4 ReceivedBroadcasts 3350
scalar World.node[57].nic.mac1609_4 SentPackets 259
scalar World.node[57].nic.mac1609_4 SentAcknowledgements 0
scalar World.node[57].nic.mac1609_4 SNIRLostPackets 266
scalar World.node[57].nic.mac1609_4 RXTXLostPackets 85
scalar World.node[57].nic.mac1609_4 TotalLostPackets 351
scalar World.node[57].nic.mac1609_4 DroppedPacketsInMac 0
scalar World.node[57].nic.mac1609_4 TooLittleTime 0
scalar World.node[57].nic.mac1609_4 TimesIntoBackoff 261
scalar World.node[57].nic.mac1609_4 SlotsBackoff 1976
scalar World.node[57].nic.mac1609_4 NumInternalContention 0
scalar World.node[57].nic.mac1609_4 totalBusyTime 0.610619857339
scalar World.node[32].appl.middleware.CaService #cam_sent 602
scalar World.node[32].appl.middleware.ExampleService #full_proofs 0
scalar World.node[32].appl.middleware.ExampleService #half_proofs 4
scalar World.node[32].appl.middleware.ExampleService #failed_proofs 0
scalar World.node[32].appl.middleware.ExampleService #loc_proof_send 23
scalar World.node[32].nic.phy80211p busyTime 0.0030823507109004
scalar World.node[32].nic.mac1609_4 ReceivedUnicastPackets 0
scalar World.node[32].nic.mac1609_4 ReceivedBroadcasts 3731
scalar World.node[32].nic.mac1609_4 SentPackets 625
scalar World.node[32].nic.mac1609_4 SentAcknowledgements 0
scalar World.node[32].nic.mac1609_4 SNIRLostPackets 307
scalar World.node[32].nic.mac1609_4 RXTXLostPackets 46
scalar World.node[32].nic.mac1609_4 TotalLostPackets 353
scalar World.node[32].nic.mac1609_4 DroppedPacketsInMac 0
scalar World.node[32].nic.mac1609_4 TooLittleTime 0
scalar World.node[32].nic.mac1609_4 TimesIntoBackoff 628
scalar World.node[32].nic.mac1609_4 SlotsBackoff 4672
scalar World.node[32].nic.mac1609_4 NumInternalContention 0
scalar World.node[32].nic.mac1609_4 totalBusyTime 0.742433420741
scalar World.node[79].appl.middleware.CaService #cam_sent 88
scalar World.node[79].appl.middleware.ExampleService #full_proofs 0
scalar World.node[79].appl.middleware.ExampleService #half_proofs 0
scalar World.node[79].appl.middleware.ExampleService #failed_proofs 0
scalar World.node[79].appl.middleware.ExampleService #loc_proof_send 3
scalar World.node[79].nic.phy80211p busyTime 0.0046867692307692
scalar World.node[79].nic.mac1609_4 ReceivedUnicastPackets 0
scalar World.node[79].nic.mac1609_4 ReceivedBroadcasts 559
scalar World.node[79].nic.mac1609_4 SentPackets 91
scalar World.node[79].nic.mac1609_4 SentAcknowledgements 0
scalar World.node[79].nic.mac1609_4 SNIRLostPackets 206
scalar World.node[79].nic.mac1609_4 RXTXLostPackets 9
scalar World.node[79].nic.mac1609_4 TotalLostPackets 215
scalar World.node[79].nic.mac1609_4 DroppedPacketsInMac 0
scalar World.node[79].nic.mac1609_4 TooLittleTime 0
scalar World.node[79].nic.mac1609_4 TimesIntoBackoff 92
scalar World.node[79].nic.mac1609_4 SlotsBackoff 726
scalar World.node[79].nic.mac1609_4 NumInternalContention 0
scalar World.node[79].nic.mac1609_4 totalBusyTime 0.132107094138
scalar World.node[23].appl.middleware.CaService #cam_sent 583
scalar World.node[23].appl.middleware.ExampleService #full_proofs 1
scalar World.node[23].appl.middleware.ExampleService #half_proofs 3
scalar World.node[23].appl.middleware.ExampleService #failed_proofs 0
scalar World.node[23].appl.middleware.ExampleService #loc_proof_send 31
scalar World.node[23].nic.phy80211p busyTime 0.0031171497975708
scalar World.node[23].nic.mac1609_4 ReceivedUnicastPackets 0
scalar World.node[23].nic.mac1609_4 ReceivedBroadcasts 4475
scalar World.node[23].nic.mac1609_4 SentPackets 614
scalar World.node[23].nic.mac1609_4 SentAcknowledgements 0
scalar World.node[23].nic.mac1609_4 SNIRLostPackets 299
scalar World.node[23].nic.mac1609_4 RXTXLostPackets 89
scalar World.node[23].nic.mac1609_4 TotalLostPackets 388
scalar World.node[23].nic.mac1609_4 DroppedPacketsInMac 0
scalar World.node[23].nic.mac1609_4 TooLittleTime 0
scalar World.node[23].nic.mac1609_4 TimesIntoBackoff 614
scalar World.node[23].nic.mac1609_4 SlotsBackoff 4704
scalar World.node[23].nic.mac1609_4 NumInternalContention 0
scalar World.node[23].nic.mac1609_4 totalBusyTime 0.857087643909
scalar World.node[52].appl.middleware.CaService #cam_sent 461
scalar World.node[52].appl.middleware.ExampleService #full_proofs 0
scalar World.node[52].appl.middleware.ExampleService #half_proofs 1
scalar World.node[52].appl.middleware.ExampleService #failed_proofs 1
scalar World.node[52].appl.middleware.ExampleService #loc_proof_send 24
scalar World.node[52].nic.phy80211p busyTime 0.0041613986013985
scalar World.node[52].nic.mac1609_4 ReceivedUnicastPackets 0
scalar World.node[52].nic.mac1609_4 ReceivedBroadcasts 3366
scalar World.node[52].nic.mac1609_4 SentPackets 485
scalar World.node[52].nic.mac1609_4 SentAcknowledgements 0
scalar World.node[52].nic.mac1609_4 SNIRLostPackets 342
scalar World.node[52].nic.mac1609_4 RXTXLostPackets 58
scalar World.node[52].nic.mac1609_4 TotalLostPackets 400
scalar World.node[52].nic.mac1609_4 DroppedPacketsInMac 0
scalar World.node[52].nic.mac1609_4 TooLittleTime 0
scalar World.node[52].nic.mac1609_4 TimesIntoBackoff 489
scalar World.node[52].nic.mac1609_4 SlotsBackoff 3493
scalar World.node[52].nic.mac1609_4 NumInternalContention 0
scalar World.node[52].nic.mac1609_4 totalBusyTime 0.66147808645
scalar World.node[37].appl.middleware.CaService #cam_sent 564
scalar World.node[37].appl.middleware.ExampleService #full_proofs 1
scalar World.node[37].appl.middleware.ExampleService #half_proofs 2
scalar World.node[37].appl.middleware.ExampleService #failed_proofs 0
scalar World.node[37].appl.middleware.ExampleService #loc_proof_send 20
scalar World.node[37].nic.phy80211p busyTime 0.0027251343283582
scalar World.node[37].nic.mac1609_4 ReceivedUnicastPackets 0
scalar World.node[37].nic.mac1609_4 ReceivedBroadcasts 3116
scalar World.node[37].nic.mac1609_4 SentPackets 584
scalar World.node[37].nic.mac1609_4 SentAcknowledgements 0
scalar World.node[37].nic.mac1609_4 SNIRLostPackets 285
scalar World.node[37].nic.mac1609_4 RXTXLostPackets 39
scalar World.node[37].nic.mac1609_4 TotalLostPackets 324
scalar World.node[37].nic.mac1609_4 DroppedPacketsInMac 0
scalar World.node[37].nic.mac1609_4 TooLittleTime 0
scalar World.node[37].nic.mac1609_4 TimesIntoBackoff 588
scalar World.node[37].nic.mac1609_4 SlotsBackoff 4334
scalar World.node[37].nic.mac1609_4 NumInternalContention 0
scalar World.node[37].nic.mac1609_4 totalBusyTime 0.632337321222
scalar World.node[43].appl.middleware.CaService #cam_sent 490
scalar World.node[43].appl.middleware.ExampleService #full_proofs 0
scalar World.node[43].appl.middleware.ExampleService #half_proofs 2
scalar World.node[43].appl.middleware.ExampleService #failed_proofs 0
scalar World.node[43].appl.middleware.ExampleService #loc_proof_send 22
scalar World.node[43].nic.phy80211p busyTime 0.0029219005524862
scalar World.node[43].nic.mac1609_4 ReceivedUnicastPackets 0
scalar World.node[43].nic.mac1609_4 ReceivedBroadcasts 2886
scalar World.node[43].nic.mac1609_4 SentPackets 512
scalar World.node[43].nic.mac1609_4 SentAcknowledgements 0
scalar World.node[43].nic.mac1609_4 SNIRLostPackets 397
scalar World.node[43].nic.mac1609_4 RXTXLostPackets 58
scalar World.node[43].nic.mac1609_4 TotalLostPackets 455
scalar World.node[43].nic.mac1609_4 DroppedPacketsInMac 0
scalar World.node[43].nic.mac1609_4 TooLittleTime 0
scalar World.node[43].nic.mac1609_4 TimesIntoBackoff 512
scalar World.node[43].nic.mac1609_4 SlotsBackoff 3617
scalar World.node[43].nic.mac1609_4 NumInternalContention 0
scalar World.node[43].nic.mac1609_4 totalBusyTime 0.605480928872
scalar World.node[58].appl.middleware.CaService #cam_sent 354
scalar World.node[58].appl.middleware.ExampleService #full_proofs 0
scalar World.node[58].appl.middleware.ExampleService #half_proofs 1
scalar World.node[58].appl.middleware.ExampleService #failed_proofs 0
scalar World.node[58].appl.middleware.ExampleService #loc_proof_send 13
scalar World.node[58].nic.phy80211p busyTime 0.0029330598290598
scalar World.node[58].nic.mac1609_4 ReceivedUnicastPackets 0
scalar World.node[58].nic.mac1609_4 ReceivedBroadcasts 1980
scalar World.node[58].nic.mac1609_4 SentPackets 367
scalar World.node[58].nic.mac1609_4 SentAcknowledgements 0
scalar World.node[58].nic.mac1609_4 SNIRLostPackets 147
scalar World.node[58].nic.mac1609_4 RXTXLostPackets 80
scalar World.node[58].nic.mac1609_4 TotalLostPackets 227
scalar World.node[58].nic.mac1609_4 DroppedPacketsInMac 0
scalar World.node[58].nic.mac1609_4 TooLittleTime 0
scalar World.node[58].nic.mac1609_4 TimesIntoBackoff 368
scalar World.node[58].nic.mac1609_4 SlotsBackoff 2664
scalar World.node[58].nic.mac1609_4 NumInternalContention 0
scalar World.node[58].nic.mac1609_4 totalBusyTime 0.399456015177
scalar World.node[17].appl.middleware.CaService #cam_sent 773
scalar World.node[17].appl.middleware.ExampleService #full_proofs 1
scalar World.node[17].appl.middleware.ExampleService #half_proofs 3
scalar World.node[17].appl.middleware.ExampleService #failed_proofs 0
scalar World.node[17].appl.middleware.ExampleService #loc_proof_send 44
scalar World.node[17].nic.phy80211p busyTime 0.0037877837837836
scalar World.node[17].nic.mac1609_4 ReceivedUnicastPackets 0
scalar World.node[17].nic.mac1609_4 ReceivedBroadcasts 6546
scalar World.node[17].nic.mac1609_4 SentPackets 817
scalar World.node[17].nic.mac1609_4 SentAcknowledgements 0
scalar World.node[17].nic.mac1609_4 SNIRLostPackets 397
scalar World.node[17].nic.mac1609_4 RXTXLostPackets 173
scalar World.node[17].nic.mac1609_4 TotalLostPackets 570
scalar World.node[17].nic.mac1609_4 DroppedPacketsInMac 0
scalar World.node[17].nic.mac1609_4 TooLittleTime 0
scalar World.node[17].nic.mac1609_4 TimesIntoBackoff 820
scalar World.node[17].nic.mac1609_4 SlotsBackoff 6218
scalar World.node[17].nic.mac1609_4 NumInternalContention 0
scalar World.node[17].nic.mac1609_4 totalBusyTime 1.242219212778
scalar World.node[59].appl.middleware.CaService #cam_sent 342
scalar World.node[59].appl.middleware.ExampleService #full_proofs 0
scalar World.node[59].appl.middleware.ExampleService #half_proofs 2
scalar World.node[59].appl.middleware.ExampleService #failed_proofs 0
scalar World.node[59].appl.middleware.ExampleService #loc_proof_send 16
scalar World.node[59].nic.phy80211p busyTime 0.0034175304347826
scalar World.node[59].nic.mac1609_4 ReceivedUnicastPackets 0
scalar World.node[59].nic.mac1609_4 ReceivedBroadcasts 2239
scalar World.node[59].nic.mac1609_4 SentPackets 358
scalar World.node[59].nic.mac1609_4 SentAcknowledgements 0
scalar World.node[59].nic.mac1609_4 SNIRLostPackets 219
scalar World.node[59].nic.mac1609_4 RXTXLostPackets 46
scalar World.node[59].nic.mac1609_4 TotalLostPackets 265
scalar World.node[59].nic.mac1609_4 DroppedPacketsInMac 0
scalar World.node[59].nic.mac1609_4 TooLittleTime 0
scalar World.node[59].nic.mac1609_4 TimesIntoBackoff 361
scalar World.node[59].nic.mac1609_4 SlotsBackoff 2634
scalar World.node[59].nic.mac1609_4 NumInternalContention 0
scalar World.node[59].nic.mac1609_4 totalBusyTime 0.443351388042
scalar World.node[47].appl.middleware.CaService #cam_sent 462
scalar World.node[47].appl.middleware.ExampleService #full_proofs 0
scalar World.node[47].appl.middleware.ExampleService #half_proofs 3
scalar World.node[47].appl.middleware.ExampleService #failed_proofs 0
scalar World.node[47].appl.middleware.ExampleService #loc_proof_send 29
scalar World.node[47].nic.phy80211p busyTime 0.0035218497109826
scalar World.node[47].nic.mac1609_4 ReceivedUnicastPackets 0
scalar World.node[47].nic.mac1609_4 ReceivedBroadcasts 3450
scalar World.node[47].nic.mac1609_4 SentPackets 491
scalar World.node[47].nic.mac1609_4 SentAcknowledgements 0
scalar World.node[47].nic.mac1609_4 SNIRLostPackets 350
scalar World.node[47].nic.mac1609_4 RXTXLostPackets 51
scalar World.node[47].nic.mac1609_4 TotalLostPackets 401
scalar World.node[47].nic.mac1609_4 DroppedPacketsInMac 0
scalar World.node[47].nic.mac1609_4 TooLittleTime 0
scalar World.node[47].nic.mac1609_4 TimesIntoBackoff 494
scalar World.node[47].nic.mac1609_4 SlotsBackoff 3545
scalar World.node[47].nic.mac1609_4 NumInternalContention 0
scalar World.node[47].nic.mac1609_4 totalBusyTime 0.677291452988
scalar World.node[49].appl.middleware.CaService #cam_sent 506
scalar World.node[49].appl.middleware.ExampleService #full_proofs 0
scalar World.node[49].appl.middleware.ExampleService #half_proofs 2
scalar World.node[49].appl.middleware.ExampleService #failed_proofs 0
scalar World.node[49].appl.middleware.ExampleService #loc_proof_send 21
scalar World.node[49].nic.phy80211p busyTime 0.0037852781065088
scalar World.node[49].nic.mac1609_4 ReceivedUnicastPackets 0
scalar World.node[49].nic.mac1609_4 ReceivedBroadcasts 3649
scalar World.node[49].nic.mac1609_4 SentPackets 527
scalar World.node[49].nic.mac1609_4 SentAcknowledgements 0
scalar World.node[49].nic.mac1609_4 SNIRLostPackets 316
scalar World.node[49].nic.mac1609_4 RXTXLostPackets 102
scalar World.node[49].nic.mac1609_4 TotalLostPackets 418
scalar World.node[49].nic.mac1609_4 DroppedPacketsInMac 0
scalar World.node[49].nic.mac1609_4 TooLittleTime 0
scalar World.node[49].nic.mac1609_4 TimesIntoBackoff 530
scalar World.node[49].nic.mac1609_4 SlotsBackoff 4035
scalar World.node[49].nic.mac1609_4 NumInternalContention 0
scalar World.node[49].nic.mac1609_4 totalBusyTime 0.71585624359
scalar World.node[55].appl.middleware.CaService #cam_sent 408
scalar World.node[55].appl.middleware.ExampleService #full_proofs 0
scalar World.node[55].appl.middleware.ExampleService #half_proofs 2
scalar World.node[55].appl.middleware.ExampleService #failed_proofs 0
scalar World.node[55].appl.middleware.ExampleService #loc_proof_send 24
scalar World.node[55].nic.phy80211p busyTime 0.0038688533333333
scalar World.node[55].nic.mac1609_4 ReceivedUnicastPackets 0
scalar World.node[55].nic.mac1609_4 ReceivedBroadcasts 3362
scalar World.node[55].nic.mac1609_4 SentPackets 432
scalar World.node[55].nic.mac1609_4 SentAcknowledgements 0
scalar World.node[55].nic.mac1609_4 SNIRLostPackets 257
scalar World.node[55].nic.mac1609_4 RXTXLostPackets 74
scalar World.node[55].nic.mac1609_4 TotalLostPackets 331
scalar World.node[55].nic.mac1609_4 DroppedPacketsInMac 0
scalar World.node[55].nic.mac1609_4 TooLittleTime 0
scalar World.node[55].nic.mac1609_4 TimesIntoBackoff 434
scalar World.node[55].nic.mac1609_4 SlotsBackoff 3276
scalar World.node[55].nic.mac1609_4 NumInternalContention 0
scalar World.node[55].nic.mac1609_4 totalBusyTime 0.639800363206
scalar World.node[41].appl.middleware.CaService #cam_sent 591
scalar World.node[41].appl.middleware.ExampleService #full_proofs 0
scalar World.node[41].appl.middleware.ExampleService #half_proofs 3
scalar World.node[41].appl.middleware.ExampleService #failed_proofs 0
scalar World.node[41].appl.middleware.ExampleService #loc_proof_send 25
scalar World.node[41].nic.phy80211p busyTime 0.0029000563380281
scalar World.node[41].nic.mac1609_4 ReceivedUnicastPackets 0
scalar World.node[41].nic.mac1609_4 ReceivedBroadcasts 3378
scalar World.node[41].nic.mac1609_4 SentPackets 616
scalar World.node[41].nic.mac1609_4 SentAcknowledgements 0
scalar World.node[41].nic.mac1609_4 SNIRLostPackets 460
scalar World.node[41].nic.mac1609_4 RXTXLostPackets 66
scalar World.node[41].nic.mac1609_4 TotalLostPackets 526
scalar World.node[41].nic.mac1609_4 DroppedPacketsInMac 0
scalar World.node[41].nic.mac1609_4 TooLittleTime 0
scalar World.node[41].nic.mac1609_4 TimesIntoBackoff 617
scalar World.node[41].nic.mac1609_4 SlotsBackoff 4781
scalar World.node[41].nic.mac1609_4 NumInternalContention 0
scalar World.node[41].nic.mac1609_4 totalBusyTime 0.709504690187
scalar World.node[34].appl.middleware.CaService #cam_sent 685
scalar World.node[34].appl.middleware.ExampleService #full_proofs 0
scalar World.node[34].appl.middleware.ExampleService #half_proofs 4
scalar World.node[34].appl.middleware.ExampleService #failed_proofs 0
scalar World.node[34].appl.middleware.ExampleService #loc_proof_send 41
scalar World.node[34].nic.phy80211p busyTime 0.0044432258064514
scalar World.node[34].nic.mac1609_4 ReceivedUnicastPackets 0
scalar World.node[34].nic.mac1609_4 ReceivedBroadcasts 6323
scalar World.node[34].nic.mac1609_4 SentPackets 726
scalar World.node[34].nic.mac1609_4 SentAcknowledgements 0
scalar World.node[34].nic.mac1609_4 SNIRLostPackets 523
scalar World.node[34].nic.mac1609_4 RXTXLostPackets 118
scalar World.node[34].nic.mac1609_4 TotalLostPackets 641
scalar World.node[34].nic.mac1609_4 DroppedPacketsInMac 0
scalar World.node[34].nic.mac1609_4 TooLittleTime 0
scalar World.node[34].nic.mac1609_4 TimesIntoBackoff 728
scalar World.node[34].nic.mac1609_4 SlotsBackoff 5306
scalar World.node[34].nic.mac1609_4 NumInternalContention 0
scalar World.node[34].nic.mac1609_4 totalBusyTime 1.201144618191
scalar World.node[60].appl.middleware.CaService #cam_sent 337
scalar World.node[60].appl.middleware.ExampleService #full_proofs 0
scalar World.node[60].appl.middleware.ExampleService #half_proofs 2
scalar World.node[60].appl.middleware.ExampleService #failed_proofs 0
scalar World.node[60].appl.middleware.ExampleService #loc_proof_send 18
scalar World.node[60].nic.phy80211p busyTime 0.0040587826086956
scalar World.node[60].nic.mac1609_4 ReceivedUnicastPackets 0
scalar World.node[60].nic.mac1609_4 ReceivedBroadcasts 3094
scalar World.node[60].nic.mac1609_4 SentPackets 355
scalar World.node[60].nic.mac1609_4 SentAcknowledgements 0
scalar World.node[60].nic.mac1609_4 SNIRLostPackets 380
scalar World.node[60].nic.mac1609_4 RXTXLostPackets 67
scalar World.node[60].nic.mac1609_4 TotalLostPackets 447
scalar World.node[60].nic.mac1609_4 DroppedPacketsInMac 0
scalar World.node[60].nic.mac1609_4 TooLittleTime 0
scalar World.node[60].nic.mac1609_4 TimesIntoBackoff 357
scalar World.node[60].nic.mac1609_4 SlotsBackoff 2809
scalar World.node[60].nic.mac1609_4 NumInternalContention 0
scalar World.node[60].nic.mac1609_4 totalBusyTime 0.610795091563
scalar World.node[42].appl.middleware.CaService #cam_sent 413
scalar World.node[42].appl.middleware.ExampleService #full_proofs 0
scalar World.node[42].appl.middleware.ExampleService #half_proofs 3
scalar World.node[42].appl.middleware.ExampleService #failed_proofs 0
scalar World.node[42].appl.middleware.ExampleService #loc_proof_send 33
scalar World.node[42].nic.phy80211p busyTime 0.0035244403669724
scalar World.node[42].nic.mac1609_4 ReceivedUnicastPackets 0
scalar World.node[42].nic.mac1609_4 ReceivedBroadcasts 4276
scalar World.node[42].nic.mac1609_4 SentPackets 446
scalar World.node[42].nic.mac1609_4 SentAcknowledgements 0
scalar World.node[42].nic.mac1609_4 SNIRLostPackets 479
scalar World.node[42].nic.mac1609_4 RXTXLostPackets 118
scalar World.node[42].nic.mac1609_4 TotalLostPackets 597
scalar World.node[42].nic.mac1609_4 DroppedPacketsInMac 0
scalar World.node[42].nic.mac1609_4 TooLittleTime 0
scalar World.node[42].nic.mac1609_4 TimesIntoBackoff 446
scalar World.node[42].nic.mac1609_4 SlotsBackoff 3366
scalar World.node[42].nic.mac1609_4 NumInternalContention 0
scalar World.node[42].nic.mac1609_4 totalBusyTime 0.831663003879
scalar World.node[72].appl.middleware.CaService #cam_sent 284
scalar World.node[72].appl.middleware.ExampleService #full_proofs 0
scalar World.node[72].appl.middleware.ExampleService #half_proofs 2
scalar World.node[72].appl.middleware.ExampleService #failed_proofs 0
scalar World.node[72].appl.middleware.ExampleService #loc_proof_send 16
scalar World.node[72].nic.phy80211p busyTime 0.004456923076923
scalar World.node[72].nic.mac1609_4 ReceivedUnicastPackets 0
scalar World.node[72].nic.mac1609_4 ReceivedBroadcasts 2689
scalar World.node[72].nic.mac1609_4 SentPackets 300
scalar World.node[72].nic.mac1609_4 SentAcknowledgements 0
scalar World.node[72].nic.mac1609_4 SNIRLostPackets 202
scalar World.node[72].nic.mac1609_4 RXTXLostPackets 71
scalar World.node[72].nic.mac1609_4 TotalLostPackets 273
scalar World.node[72].nic.mac1609_4 DroppedPacketsInMac 0
scalar World.node[72].nic.mac1609_4 TooLittleTime 0
scalar World.node[72].nic.mac1609_4 TimesIntoBackoff 304
scalar World.node[72].nic.mac1609_4 SlotsBackoff 2377
scalar World.node[72].nic.mac1609_4 NumInternalContention 0
scalar World.node[72].nic.mac1609_4 totalBusyTime 0.503428375542
scalar World.node[29].appl.middleware.CaService #cam_sent 752
scalar World.node[29].appl.middleware.ExampleService #full_proofs 0
scalar World.node[29].appl.middleware.ExampleService #half_proofs 4
scalar World.node[29].appl.middleware.ExampleService #failed_proofs 0
scalar World.node[29].appl.middleware.ExampleService #loc_proof_send 40
scalar World.node[29].nic.phy80211p busyTime 0.0032838709677419
scalar World.node[29].nic.mac1609_4 ReceivedUnicastPackets 0
scalar World.node[29].nic.mac1609_4 ReceivedBroadcasts 5258
scalar World.node[29].nic.mac1609_4 SentPackets 792
scalar World.node[29].nic.mac1609_4 SentAcknowledgements 0
scalar World.node[29].nic.mac1609_4 SNIRLostPackets 427
scalar World.node[29].nic.mac1609_4 RXTXLostPackets 105
scalar World.node[29].nic.mac1609_4 TotalLostPackets 532
scalar World.node[29].nic.mac1609_4 DroppedPacketsInMac 0
scalar World.node[29].nic.mac1609_4 TooLittleTime 0
scalar World.node[29].nic.mac1609_4 TimesIntoBackoff 798
scalar World.node[29].nic.mac1609_4 SlotsBackoff 5851
scalar World.node[29].nic.mac1609_4 NumInternalContention 0
scalar World.node[29].nic.mac1609_4 totalBusyTime 1.034928761567
scalar World.node[46].appl.middleware.CaService #cam_sent 548
scalar World.node[46].appl.middleware.ExampleService #full_proofs 0
scalar World.node[46].appl.middleware.ExampleService #half_proofs 3
scalar World.node[46].appl.middleware.ExampleService #failed_proofs 1
scalar World.node[46].appl.middleware.ExampleService #loc_proof_send 35
scalar World.node[46].nic.phy80211p busyTime 0.0046730762331838
scalar World.node[46].nic.mac1609_4 ReceivedUnicastPackets 0
scalar World.node[46].nic.mac1609_4 ReceivedBroadcasts 5940
scalar World.node[46].nic.mac1609_4 SentPackets 583
scalar World.node[46].nic.mac1609_4 SentAcknowledgements 0
scalar World.node[46].nic.mac1609_4 SNIRLostPackets 529
scalar World.node[46].nic.mac1609_4 RXTXLostPackets 99
scalar World.node[46].nic.mac1609_4 TotalLostPackets 628
scalar World.node[46].nic.mac1609_4 DroppedPacketsInMac 0
scalar World.node[46].nic.mac1609_4 TooLittleTime 0
scalar World.node[46].nic.mac1609_4 TimesIntoBackoff 596
scalar World.node[46].nic.mac1609_4 SlotsBackoff 4378
scalar World.node[46].nic.mac1609_4 NumInternalContention 0
scalar World.node[46].nic.mac1609_4 totalBusyTime 1.117913007049
scalar World.node[51].appl.middleware.CaService #cam_sent 552
scalar World.node[51].appl.middleware.ExampleService #full_proofs 0
scalar World.node[51].appl.middleware.ExampleService #half_proofs 3
scalar World.node[51].appl.middleware.ExampleService #failed_proofs 0
scalar World.node[51].appl.middleware.ExampleService #loc_proof_send 37
scalar World.node[51].nic.phy80211p busyTime 0.0046631844660194
scalar World.node[51].nic.mac1609_4 ReceivedUnicastPackets 0
scalar World.node[51].nic.mac1609_4 ReceivedBroadcasts 5445
scalar World.node[51].nic.mac1609_4 SentPackets 589
scalar World.node[51].nic.mac1609_4 SentAcknowledgements 0
scalar World.node[51].nic.mac1609_4 SNIRLostPackets 532
scalar World.node[51].nic.mac1609_4 RXTXLostPackets 105
scalar World.node[51].nic.mac1609_4 TotalLostPackets 637
scalar World.node[51].nic.mac1609_4 DroppedPacketsInMac 0
scalar World.node[51].nic.mac1609_4 TooLittleTime 0
scalar World.node[51].nic.mac1609_4 TimesIntoBackoff 593
scalar World.node[51].nic.mac1609_4 SlotsBackoff 4345
scalar World.node[51].nic.mac1609_4 NumInternalContention 0
scalar World.node[51].nic.mac1609_4 totalBusyTime 1.035615262437
scalar World.node[81].appl.middleware.CaService #cam_sent 229
scalar World.node[81].appl.middleware.ExampleService #full_proofs 0
scalar World.node[81].appl.middleware.ExampleService #half_proofs 1
scalar World.node[81].appl.middleware.ExampleService #failed_proofs 1
scalar World.node[81].appl.middleware.ExampleService #loc_proof_send 15
scalar World.node[81].nic.phy80211p busyTime 0.0039320449438202
scalar World.node[81].nic.mac1609_4 ReceivedUnicastPackets 0
scalar World.node[81].nic.mac1609_4 ReceivedBroadcasts 1932
scalar World.node[81].nic.mac1609_4 SentPackets 244
scalar World.node[81].nic.mac1609_4 SentAcknowledgements 0
scalar World.node[81].nic.mac1609_4 SNIRLostPackets 252
scalar World.node[81].nic.mac1609_4 RXTXLostPackets 33
scalar World.node[81].nic.mac1609_4 TotalLostPackets 285
scalar World.node[81].nic.mac1609_4 DroppedPacketsInMac 0
scalar World.node[81].nic.mac1609_4 TooLittleTime 0
scalar World.node[81].nic.mac1609_4 TimesIntoBackoff 244
scalar World.node[81].nic.mac1609_4 SlotsBackoff 1851
scalar World.node[81].nic.mac1609_4 NumInternalContention 0
scalar World.node[81].nic.mac1609_4 totalBusyTime 0.374668650106
scalar World.node[78].appl.middleware.CaService #cam_sent 307
scalar World.node[78].appl.middleware.ExampleService #full_proofs 1
scalar World.node[78].appl.middleware.ExampleService #half_proofs 1
scalar World.node[78].appl.middleware.ExampleService #failed_proofs 0
scalar World.node[78].appl.middleware.ExampleService #loc_proof_send 22
scalar World.node[78].nic.phy80211p busyTime 0.0045730642201834
scalar World.node[78].nic.mac1609_4 ReceivedUnicastPackets 0
scalar World.node[78].nic.mac1609_4 ReceivedBroadcasts 2737
scalar World.node[78].nic.mac1609_4 SentPackets 329
scalar World.node[78].nic.mac1609_4 SentAcknowledgements 0
scalar World.node[78].nic.mac1609_4 SNIRLostPackets 370
scalar World.node[78].nic.mac1609_4 RXTXLostPackets 105
scalar World.node[78].nic.mac1609_4 TotalLostPackets 475
scalar World.node[78].nic.mac1609_4 DroppedPacketsInMac 0
scalar World.node[78].nic.mac1609_4 TooLittleTime 0
scalar World.node[78].nic.mac1609_4 TimesIntoBackoff 332
scalar World.node[78].nic.mac1609_4 SlotsBackoff 2400
scalar World.node[78].nic.mac1609_4 NumInternalContention 0
scalar World.node[78].nic.mac1609_4 totalBusyTime 0.537194563764
scalar World.node[44].appl.middleware.CaService #cam_sent 630
scalar World.node[44].appl.middleware.ExampleService #full_proofs 0
scalar World.node[44].appl.middleware.ExampleService #half_proofs 4
scalar World.node[44].appl.middleware.ExampleService #failed_proofs 1
scalar World.node[44].appl.middleware.ExampleService #loc_proof_send 47
scalar World.node[44].nic.phy80211p busyTime 0.0047590038910503
scalar World.node[44].nic.mac1609_4 ReceivedUnicastPackets 0
scalar World.node[44].nic.mac1609_4 ReceivedBroadcasts 7057
scalar World.node[44].nic.mac1609_4 SentPackets 677
scalar World.node[44].nic.mac1609_4 SentAcknowledgements 0
scalar World.node[44].nic.mac1609_4 SNIRLostPackets 546
scalar World.node[44].nic.mac1609_4 RXTXLostPackets 162
scalar World.node[44].nic.mac1609_4 TotalLostPackets 708
scalar World.node[44].nic.mac1609_4 DroppedPacketsInMac 0
scalar World.node[44].nic.mac1609_4 TooLittleTime 0
scalar World.node[44].nic.mac1609_4 TimesIntoBackoff 681
scalar World.node[44].nic.mac1609_4 SlotsBackoff 5018
scalar World.node[44].nic.mac1609_4 NumInternalContention 0
scalar World.node[44].nic.mac1609_4 totalBusyTime 1.304246842526
scalar World.node[65].appl.middleware.CaService #cam_sent 466
scalar World.node[65].appl.middleware.ExampleService #full_proofs 0
scalar World.node[65].appl.middleware.ExampleService #half_proofs 3
scalar World.node[65].appl.middleware.ExampleService #failed_proofs 0
scalar World.node[65].appl.middleware.ExampleService #loc_proof_send 36
scalar World.node[65].nic.phy80211p busyTime 0.0050485
scalar World.node[65].nic.mac1609_4 ReceivedUnicastPackets 0
scalar World.node[65].nic.mac1609_4 ReceivedBroadcasts 4664
scalar World.node[65].nic.mac1609_4 SentPackets 502
scalar World.node[65].nic.mac1609_4 SentAcknowledgements 0
scalar World.node[65].nic.mac1609_4 SNIRLostPackets 880
scalar World.node[65].nic.mac1609_4 RXTXLostPackets 98
scalar World.node[65].nic.mac1609_4 TotalLostPackets 978
scalar World.node[65].nic.mac1609_4 DroppedPacketsInMac 0
scalar World.node[65].nic.mac1609_4 TooLittleTime 0
scalar World.node[65].nic.mac1609_4 TimesIntoBackoff 504
scalar World.node[65].nic.mac1609_4 SlotsBackoff 3756
scalar World.node[65].nic.mac1609_4 NumInternalContention 0
scalar World.node[65].nic.mac1609_4 totalBusyTime 0.943958496596
scalar World.node[66].appl.middleware.CaService #cam_sent 516
scalar World.node[66].appl.middleware.ExampleService #full_proofs 0
scalar World.node[66].appl.middleware.ExampleService #half_proofs 3
scalar World.node[66].appl.middleware.ExampleService #failed_proofs 0
scalar World.node[66].appl.middleware.ExampleService #loc_proof_send 34
scalar World.node[66].nic.phy80211p busyTime 0.0050107391304348
scalar World.node[66].nic.mac1609_4 ReceivedUnicastPackets 0
scalar World.node[66].nic.mac1609_4 ReceivedBroadcasts 5070
scalar World.node[66].nic.mac1609_4 SentPackets 550
scalar World.node[66].nic.mac1609_4 SentAcknowledgements 0
scalar World.node[66].nic.mac1609_4 SNIRLostPackets 669
scalar World.node[66].nic.mac1609_4 RXTXLostPackets 93
scalar World.node[66].nic.mac1609_4 TotalLostPackets 762
scalar World.node[66].nic.mac1609_4 DroppedPacketsInMac 0
scalar World.node[66].nic.mac1609_4 TooLittleTime 0
scalar World.node[66].nic.mac1609_4 TimesIntoBackoff 553
scalar World.node[66].nic.mac1609_4 SlotsBackoff 4133
scalar World.node[66].nic.mac1609_4 NumInternalContention 0
scalar World.node[66].nic.mac1609_4 totalBusyTime 0.992430842851
scalar World.node[61].appl.middleware.CaService #cam_sent 509
scalar World.node[61].appl.middleware.ExampleService #full_proofs 1
scalar World.node[61].appl.middleware.ExampleService #half_proofs 2
scalar World.node[61].appl.middleware.ExampleService #failed_proofs 0
scalar World.node[61].appl.middleware.ExampleService #loc_proof_send 29
scalar World.node[61].nic.phy80211p busyTime 0.0034024827586206
scalar World.node[61].nic.mac1609_4 ReceivedUnicastPackets 0
scalar World.node[61].nic.mac1609_4 ReceivedBroadcasts 3925
scalar World.node[61].nic.mac1609_4 SentPackets 538
scalar World.node[61].nic.mac1609_4 SentAcknowledgements 0
scalar World.node[61].nic.mac1609_4 SNIRLostPackets 377
scalar World.node[61].nic.mac1609_4 RXTXLostPackets 98
scalar World.node[61].nic.mac1609_4 TotalLostPackets 475
scalar World.node[61].nic.mac1609_4 DroppedPacketsInMac 0
scalar World.node[61].nic.mac1609_4 TooLittleTime 0
scalar World.node[61].nic.mac1609_4 TimesIntoBackoff 541
scalar World.node[61].nic.mac1609_4 SlotsBackoff 4045
scalar World.node[61].nic.mac1609_4 NumInternalContention 0
scalar World.node[61].nic.mac1609_4 totalBusyTime 0.76553760661
scalar World.node[74].appl.middleware.CaService #cam_sent 351
scalar World.node[74].appl.middleware.ExampleService #full_proofs 0
scalar World.node[74].appl.middleware.ExampleService #half_proofs 2
scalar World.node[74].appl.middleware.ExampleService #failed_proofs 0
scalar World.node[74].appl.middleware.ExampleService #loc_proof_send 27
scalar World.node[74].nic.phy80211p busyTime 0.0052413959731543
scalar World.node[74].nic.mac1609_4 ReceivedUnicastPackets 0
scalar World.node[74].nic.mac1609_4 ReceivedBroadcasts 4455
scalar World.node[74].nic.mac1609_4 SentPackets 378
scalar World.node[74].nic.mac1609_4 SentAcknowledgements 0
scalar World.node[74].nic.mac1609_4 SNIRLostPackets 412
scalar World.node[74].nic.mac1609_4 RXTXLostPackets 120
[...]
scalar World.node[918].nic.mac1609_4 totalBusyTime 0.866157652631
scalar World.node[886].appl.middleware.CaService #cam_sent 639
scalar World.node[886].appl.middleware.ExampleService #full_proofs 0
scalar World.node[886].appl.middleware.ExampleService #half_proofs 6
scalar World.node[886].appl.middleware.ExampleService #failed_proofs 0
scalar World.node[886].appl.middleware.ExampleService #loc_proof_send 118
scalar World.node[886].nic.phy80211p busyTime 0.0065532178477684
scalar World.node[886].nic.mac1609_4 ReceivedUnicastPackets 0
scalar World.node[886].nic.mac1609_4 ReceivedBroadcasts 14462
scalar World.node[886].nic.mac1609_4 SentPackets 757
scalar World.node[886].nic.mac1609_4 SentAcknowledgements 0
scalar World.node[886].nic.mac1609_4 SNIRLostPackets 1113
scalar World.node[886].nic.mac1609_4 RXTXLostPackets 832
scalar World.node[886].nic.mac1609_4 TotalLostPackets 1945
scalar World.node[886].nic.mac1609_4 DroppedPacketsInMac 0
scalar World.node[886].nic.mac1609_4 TooLittleTime 0
scalar World.node[886].nic.mac1609_4 TimesIntoBackoff 770
scalar World.node[886].nic.mac1609_4 SlotsBackoff 5669
scalar World.node[886].nic.mac1609_4 NumInternalContention 0
scalar World.node[886].nic.mac1609_4 totalBusyTime 2.54303359862
scalar World.node[921].appl.middleware.CaService #cam_sent 648
scalar World.node[921].appl.middleware.ExampleService #full_proofs 0
scalar World.node[921].appl.middleware.ExampleService #half_proofs 2
scalar World.node[921].appl.middleware.ExampleService #failed_proofs 2
scalar World.node[921].appl.middleware.ExampleService #loc_proof_send 31
scalar World.node[921].nic.phy80211p busyTime 0.0032882612244897
scalar World.node[921].nic.mac1609_4 ReceivedUnicastPackets 0
scalar World.node[921].nic.mac1609_4 ReceivedBroadcasts 3727
scalar World.node[921].nic.mac1609_4 SentPackets 679
scalar World.node[921].nic.mac1609_4 SentAcknowledgements 0
scalar World.node[921].nic.mac1609_4 SNIRLostPackets 1286
scalar World.node[921].nic.mac1609_4 RXTXLostPackets 112
scalar World.node[921].nic.mac1609_4 TotalLostPackets 1398
scalar World.node[921].nic.mac1609_4 DroppedPacketsInMac 0
scalar World.node[921].nic.mac1609_4 TooLittleTime 0
scalar World.node[921].nic.mac1609_4 TimesIntoBackoff 681
scalar World.node[921].nic.mac1609_4 SlotsBackoff 5101
scalar World.node[921].nic.mac1609_4 NumInternalContention 0
scalar World.node[921].nic.mac1609_4 totalBusyTime 0.897911195101
scalar World.node[916].appl.middleware.CaService #cam_sent 640
scalar World.node[916].appl.middleware.ExampleService #full_proofs 1
scalar World.node[916].appl.middleware.ExampleService #half_proofs 4
scalar World.node[916].appl.middleware.ExampleService #failed_proofs 0
scalar World.node[916].appl.middleware.ExampleService #loc_proof_send 29
scalar World.node[916].nic.phy80211p busyTime 0.003139657992565
scalar World.node[916].nic.mac1609_4 ReceivedUnicastPackets 0
scalar World.node[916].nic.mac1609_4 ReceivedBroadcasts 4770
scalar World.node[916].nic.mac1609_4 SentPackets 669
scalar World.node[916].nic.mac1609_4 SentAcknowledgements 0
scalar World.node[916].nic.mac1609_4 SNIRLostPackets 499
scalar World.node[916].nic.mac1609_4 RXTXLostPackets 82
scalar World.node[916].nic.mac1609_4 TotalLostPackets 581
scalar World.node[916].nic.mac1609_4 DroppedPacketsInMac 0
scalar World.node[916].nic.mac1609_4 TooLittleTime 0
scalar World.node[916].nic.mac1609_4 TimesIntoBackoff 675
scalar World.node[916].nic.mac1609_4 SlotsBackoff 4919
scalar World.node[916].nic.mac1609_4 NumInternalContention 0
scalar World.node[916].nic.mac1609_4 totalBusyTime 0.934534769762
scalar World.node[940].appl.middleware.CaService #cam_sent 546
scalar World.node[940].appl.middleware.ExampleService #full_proofs 0
scalar World.node[940].appl.middleware.ExampleService #half_proofs 1
scalar World.node[940].appl.middleware.ExampleService #failed_proofs 2
scalar World.node[940].appl.middleware.ExampleService #loc_proof_send 24
scalar World.node[940].nic.phy80211p busyTime 0.0026350212765957
scalar World.node[940].nic.mac1609_4 ReceivedUnicastPackets 0
scalar World.node[940].nic.mac1609_4 ReceivedBroadcasts 2809
scalar World.node[940].nic.mac1609_4 SentPackets 570
scalar World.node[940].nic.mac1609_4 SentAcknowledgements 0
scalar World.node[940].nic.mac1609_4 SNIRLostPackets 275
scalar World.node[940].nic.mac1609_4 RXTXLostPackets 78
scalar World.node[940].nic.mac1609_4 TotalLostPackets 353
scalar World.node[940].nic.mac1609_4 DroppedPacketsInMac 0
scalar World.node[940].nic.mac1609_4 TooLittleTime 0
scalar World.node[940].nic.mac1609_4 TimesIntoBackoff 574
scalar World.node[940].nic.mac1609_4 SlotsBackoff 4426
scalar World.node[940].nic.mac1609_4 NumInternalContention 0
scalar World.node[940].nic.mac1609_4 totalBusyTime 0.573410334594
scalar World.node[939].appl.middleware.CaService #cam_sent 483
scalar World.node[939].appl.middleware.ExampleService #full_proofs 1
scalar World.node[939].appl.middleware.ExampleService #half_proofs 1
scalar World.node[939].appl.middleware.ExampleService #failed_proofs 1
scalar World.node[939].appl.middleware.ExampleService #loc_proof_send 14
scalar World.node[939].nic.phy80211p busyTime 0.0019900932642487
scalar World.node[939].nic.mac1609_4 ReceivedUnicastPackets 0
scalar World.node[939].nic.mac1609_4 ReceivedBroadcasts 1843
scalar World.node[939].nic.mac1609_4 SentPackets 497
scalar World.node[939].nic.mac1609_4 SentAcknowledgements 0
scalar World.node[939].nic.mac1609_4 SNIRLostPackets 542
scalar World.node[939].nic.mac1609_4 RXTXLostPackets 19
scalar World.node[939].nic.mac1609_4 TotalLostPackets 561
scalar World.node[939].nic.mac1609_4 DroppedPacketsInMac 0
scalar World.node[939].nic.mac1609_4 TooLittleTime 0
scalar World.node[939].nic.mac1609_4 TimesIntoBackoff 497
scalar World.node[939].nic.mac1609_4 SlotsBackoff 3728
scalar World.node[939].nic.mac1609_4 NumInternalContention 0
scalar World.node[939].nic.mac1609_4 totalBusyTime 0.459969201939
scalar World.node[888].appl.middleware.CaService #cam_sent 955
scalar World.node[888].appl.middleware.ExampleService #full_proofs 0
scalar World.node[888].appl.middleware.ExampleService #half_proofs 6
scalar World.node[888].appl.middleware.ExampleService #failed_proofs 0
scalar World.node[888].appl.middleware.ExampleService #loc_proof_send 72
scalar World.node[888].nic.phy80211p busyTime 0.0046779999999993
scalar World.node[888].nic.mac1609_4 ReceivedUnicastPackets 0
scalar World.node[888].nic.mac1609_4 ReceivedBroadcasts 10156
scalar World.node[888].nic.mac1609_4 SentPackets 1027
scalar World.node[888].nic.mac1609_4 SentAcknowledgements 0
scalar World.node[888].nic.mac1609_4 SNIRLostPackets 1542
scalar World.node[888].nic.mac1609_4 RXTXLostPackets 505
scalar World.node[888].nic.mac1609_4 TotalLostPackets 2047
scalar World.node[888].nic.mac1609_4 DroppedPacketsInMac 0
scalar World.node[888].nic.mac1609_4 TooLittleTime 0
scalar World.node[888].nic.mac1609_4 TimesIntoBackoff 1030
scalar World.node[888].nic.mac1609_4 SlotsBackoff 7735
scalar World.node[888].nic.mac1609_4 NumInternalContention 0
scalar World.node[888].nic.mac1609_4 totalBusyTime 1.985740894235
scalar World.node[896].appl.middleware.CaService #cam_sent 691
scalar World.node[896].appl.middleware.ExampleService #full_proofs 0
scalar World.node[896].appl.middleware.ExampleService #half_proofs 5
scalar World.node[896].appl.middleware.ExampleService #failed_proofs 1
scalar World.node[896].appl.middleware.ExampleService #loc_proof_send 88
scalar World.node[896].nic.phy80211p busyTime 0.0053137945945937
scalar World.node[896].nic.mac1609_4 ReceivedUnicastPackets 0
scalar World.node[896].nic.mac1609_4 ReceivedBroadcasts 11057
scalar World.node[896].nic.mac1609_4 SentPackets 779
scalar World.node[896].nic.mac1609_4 SentAcknowledgements 0
scalar World.node[896].nic.mac1609_4 SNIRLostPackets 1167
scalar World.node[896].nic.mac1609_4 RXTXLostPackets 587
scalar World.node[896].nic.mac1609_4 TotalLostPackets 1754
scalar World.node[896].nic.mac1609_4 DroppedPacketsInMac 0
scalar World.node[896].nic.mac1609_4 TooLittleTime 0
scalar World.node[896].nic.mac1609_4 TimesIntoBackoff 784
scalar World.node[896].nic.mac1609_4 SlotsBackoff 5906
scalar World.node[896].nic.mac1609_4 NumInternalContention 0
scalar World.node[896].nic.mac1609_4 totalBusyTime 2.047779397975
scalar World.node[911].appl.middleware.CaService #cam_sent 707
scalar World.node[911].appl.middleware.ExampleService #full_proofs 0
scalar World.node[911].appl.middleware.ExampleService #half_proofs 2
scalar World.node[911].appl.middleware.ExampleService #failed_proofs 4
scalar World.node[911].appl.middleware.ExampleService #loc_proof_send 66
scalar World.node[911].nic.phy80211p busyTime 0.0043737560975604
scalar World.node[911].nic.mac1609_4 ReceivedUnicastPackets 0
scalar World.node[911].nic.mac1609_4 ReceivedBroadcasts 7852
scalar World.node[911].nic.mac1609_4 SentPackets 773
scalar World.node[911].nic.mac1609_4 SentAcknowledgements 0
scalar World.node[911].nic.mac1609_4 SNIRLostPackets 1116
scalar World.node[911].nic.mac1609_4 RXTXLostPackets 399
scalar World.node[911].nic.mac1609_4 TotalLostPackets 1515
scalar World.node[911].nic.mac1609_4 DroppedPacketsInMac 0
scalar World.node[911].nic.mac1609_4 TooLittleTime 0
scalar World.node[911].nic.mac1609_4 TimesIntoBackoff 776
scalar World.node[911].nic.mac1609_4 SlotsBackoff 5772
scalar World.node[911].nic.mac1609_4 NumInternalContention 0
scalar World.node[911].nic.mac1609_4 totalBusyTime 1.511381623842
scalar World.node[937].appl.middleware.CaService #cam_sent 525
scalar World.node[937].appl.middleware.ExampleService #full_proofs 0
scalar World.node[937].appl.middleware.ExampleService #half_proofs 3
scalar World.node[937].appl.middleware.ExampleService #failed_proofs 0
scalar World.node[937].appl.middleware.ExampleService #loc_proof_send 21
scalar World.node[937].nic.phy80211p busyTime 0.0024303231441048
scalar World.node[937].nic.mac1609_4 ReceivedUnicastPackets 0
scalar World.node[937].nic.mac1609_4 ReceivedBroadcasts 3164
scalar World.node[937].nic.mac1609_4 SentPackets 546
scalar World.node[937].nic.mac1609_4 SentAcknowledgements 0
scalar World.node[937].nic.mac1609_4 SNIRLostPackets 290
scalar World.node[937].nic.mac1609_4 RXTXLostPackets 87
scalar World.node[937].nic.mac1609_4 TotalLostPackets 377
scalar World.node[937].nic.mac1609_4 DroppedPacketsInMac 0
scalar World.node[937].nic.mac1609_4 TooLittleTime 0
scalar World.node[937].nic.mac1609_4 TimesIntoBackoff 552
scalar World.node[937].nic.mac1609_4 SlotsBackoff 4107
scalar World.node[937].nic.mac1609_4 NumInternalContention 0
scalar World.node[937].nic.mac1609_4 totalBusyTime 0.637514230443
scalar World.node[898].appl.middleware.CaService #cam_sent 962
scalar World.node[898].appl.middleware.ExampleService #full_proofs 2
scalar World.node[898].appl.middleware.ExampleService #half_proofs 4
scalar World.node[898].appl.middleware.ExampleService #failed_proofs 1
scalar World.node[898].appl.middleware.ExampleService #loc_proof_send 82
scalar World.node[898].nic.phy80211p busyTime 0.0046612352941169
scalar World.node[898].nic.mac1609_4 ReceivedUnicastPackets 0
scalar World.node[898].nic.mac1609_4 ReceivedBroadcasts 10773
scalar World.node[898].nic.mac1609_4 SentPackets 1044
scalar World.node[898].nic.mac1609_4 SentAcknowledgements 0
scalar World.node[898].nic.mac1609_4 SNIRLostPackets 1073
scalar World.node[898].nic.mac1609_4 RXTXLostPackets 705
scalar World.node[898].nic.mac1609_4 TotalLostPackets 1778
scalar World.node[898].nic.mac1609_4 DroppedPacketsInMac 0
scalar World.node[898].nic.mac1609_4 TooLittleTime 0
scalar World.node[898].nic.mac1609_4 TimesIntoBackoff 1051
scalar World.node[898].nic.mac1609_4 SlotsBackoff 7929
scalar World.node[898].nic.mac1609_4 NumInternalContention 0
scalar World.node[898].nic.mac1609_4 totalBusyTime 2.015941529736
scalar World.node[928].appl.middleware.CaService #cam_sent 744
scalar World.node[928].appl.middleware.ExampleService #full_proofs 0
scalar World.node[928].appl.middleware.ExampleService #half_proofs 3
scalar World.node[928].appl.middleware.ExampleService #failed_proofs 2
scalar World.node[928].appl.middleware.ExampleService #loc_proof_send 48
scalar World.node[928].nic.phy80211p busyTime 0.00292336196319
scalar World.node[928].nic.mac1609_4 ReceivedUnicastPackets 0
scalar World.node[928].nic.mac1609_4 ReceivedBroadcasts 5315
scalar World.node[928].nic.mac1609_4 SentPackets 792
scalar World.node[928].nic.mac1609_4 SentAcknowledgements 0
scalar World.node[928].nic.mac1609_4 SNIRLostPackets 639
scalar World.node[928].nic.mac1609_4 RXTXLostPackets 213
scalar World.node[928].nic.mac1609_4 TotalLostPackets 852
scalar World.node[928].nic.mac1609_4 DroppedPacketsInMac 0
scalar World.node[928].nic.mac1609_4 TooLittleTime 0
scalar World.node[928].nic.mac1609_4 TimesIntoBackoff 794
scalar World.node[928].nic.mac1609_4 SlotsBackoff 6299
scalar World.node[928].nic.mac1609_4 NumInternalContention 0
scalar World.node[928].nic.mac1609_4 totalBusyTime 1.043572882032
scalar World.node[934].appl.middleware.CaService #cam_sent 586
scalar World.node[934].appl.middleware.ExampleService #full_proofs 1
scalar World.node[934].appl.middleware.ExampleService #half_proofs 3
scalar World.node[934].appl.middleware.ExampleService #failed_proofs 2
scalar World.node[934].appl.middleware.ExampleService #loc_proof_send 53
scalar World.node[934].nic.phy80211p busyTime 0.0034856363636361
scalar World.node[934].nic.mac1609_4 ReceivedUnicastPackets 0
scalar World.node[934].nic.mac1609_4 ReceivedBroadcasts 5867
scalar World.node[934].nic.mac1609_4 SentPackets 639
scalar World.node[934].nic.mac1609_4 SentAcknowledgements 0
scalar World.node[934].nic.mac1609_4 SNIRLostPackets 800
scalar World.node[934].nic.mac1609_4 RXTXLostPackets 324
scalar World.node[934].nic.mac1609_4 TotalLostPackets 1124
scalar World.node[934].nic.mac1609_4 DroppedPacketsInMac 0
scalar World.node[934].nic.mac1609_4 TooLittleTime 0
scalar World.node[934].nic.mac1609_4 TimesIntoBackoff 642
scalar World.node[934].nic.mac1609_4 SlotsBackoff 4820
scalar World.node[934].nic.mac1609_4 NumInternalContention 0
scalar World.node[934].nic.mac1609_4 totalBusyTime 1.145921227027
scalar World.node[895].appl.middleware.CaService #cam_sent 1044
scalar World.node[895].appl.middleware.ExampleService #full_proofs 1
scalar World.node[895].appl.middleware.ExampleService #half_proofs 5
scalar World.node[895].appl.middleware.ExampleService #failed_proofs 1
scalar World.node[895].appl.middleware.ExampleService #loc_proof_send 90
scalar World.node[895].nic.phy80211p busyTime 0.0042949957446801
scalar World.node[895].nic.mac1609_4 ReceivedUnicastPackets 0
scalar World.node[895].nic.mac1609_4 ReceivedBroadcasts 11547
scalar World.node[895].nic.mac1609_4 SentPackets 1134
scalar World.node[895].nic.mac1609_4 SentAcknowledgements 0
scalar World.node[895].nic.mac1609_4 SNIRLostPackets 1011
scalar World.node[895].nic.mac1609_4 RXTXLostPackets 781
scalar World.node[895].nic.mac1609_4 TotalLostPackets 1792
scalar World.node[895].nic.mac1609_4 DroppedPacketsInMac 0
scalar World.node[895].nic.mac1609_4 TooLittleTime 0
scalar World.node[895].nic.mac1609_4 TimesIntoBackoff 1142
scalar World.node[895].nic.mac1609_4 SlotsBackoff 8654
scalar World.node[895].nic.mac1609_4 NumInternalContention 0
scalar World.node[895].nic.mac1609_4 totalBusyTime 2.150375547524
scalar World.node[914].appl.middleware.CaService #cam_sent 936
scalar World.node[914].appl.middleware.ExampleService #full_proofs 2
scalar World.node[914].appl.middleware.ExampleService #half_proofs 2
scalar World.node[914].appl.middleware.ExampleService #failed_proofs 3
scalar World.node[914].appl.middleware.ExampleService #loc_proof_send 63
scalar World.node[914].nic.phy80211p busyTime 0.0031043980099499
scalar World.node[914].nic.mac1609_4 ReceivedUnicastPackets 0
scalar World.node[914].nic.mac1609_4 ReceivedBroadcasts 7180
scalar World.node[914].nic.mac1609_4 SentPackets 999
scalar World.node[914].nic.mac1609_4 SentAcknowledgements 0
scalar World.node[914].nic.mac1609_4 SNIRLostPackets 542
scalar World.node[914].nic.mac1609_4 RXTXLostPackets 412
scalar World.node[914].nic.mac1609_4 TotalLostPackets 954
scalar World.node[914].nic.mac1609_4 DroppedPacketsInMac 0
scalar World.node[914].nic.mac1609_4 TooLittleTime 0
scalar World.node[914].nic.mac1609_4 TimesIntoBackoff 1004
scalar World.node[914].nic.mac1609_4 SlotsBackoff 7328
scalar World.node[914].nic.mac1609_4 NumInternalContention 0
scalar World.node[914].nic.mac1609_4 totalBusyTime 1.385438202002
scalar World.node[919].appl.middleware.CaService #cam_sent 930
scalar World.node[919].appl.middleware.ExampleService #full_proofs 1
scalar World.node[919].appl.middleware.ExampleService #half_proofs 3
scalar World.node[919].appl.middleware.ExampleService #failed_proofs 2
scalar World.node[919].appl.middleware.ExampleService #loc_proof_send 63
scalar World.node[919].nic.phy80211p busyTime 0.0034734395886886
scalar World.node[919].nic.mac1609_4 ReceivedUnicastPackets 0
scalar World.node[919].nic.mac1609_4 ReceivedBroadcasts 7654
scalar World.node[919].nic.mac1609_4 SentPackets 993
scalar World.node[919].nic.mac1609_4 SentAcknowledgements 0
scalar World.node[919].nic.mac1609_4 SNIRLostPackets 749
scalar World.node[919].nic.mac1609_4 RXTXLostPackets 359
scalar World.node[919].nic.mac1609_4 TotalLostPackets 1108
scalar World.node[919].nic.mac1609_4 DroppedPacketsInMac 0
scalar World.node[919].nic.mac1609_4 TooLittleTime 0
scalar World.node[919].nic.mac1609_4 TimesIntoBackoff 999
scalar World.node[919].nic.mac1609_4 SlotsBackoff 7363
scalar World.node[919].nic.mac1609_4 NumInternalContention 0
scalar World.node[919].nic.mac1609_4 totalBusyTime 1.472736001967
scalar World.node[922].appl.middleware.CaService #cam_sent 762
scalar World.node[922].appl.middleware.ExampleService #full_proofs 1
scalar World.node[922].appl.middleware.ExampleService #half_proofs 5
scalar World.node[922].appl.middleware.ExampleService #failed_proofs 0
scalar World.node[922].appl.middleware.ExampleService #loc_proof_send 57
scalar World.node[922].nic.phy80211p busyTime 0.0029272727272725
scalar World.node[922].nic.mac1609_4 ReceivedUnicastPackets 0
scalar World.node[922].nic.mac1609_4 ReceivedBroadcasts 6454
scalar World.node[922].nic.mac1609_4 SentPackets 819
scalar World.node[922].nic.mac1609_4 SentAcknowledgements 0
scalar World.node[922].nic.mac1609_4 SNIRLostPackets 559
scalar World.node[922].nic.mac1609_4 RXTXLostPackets 299
scalar World.node[922].nic.mac1609_4 TotalLostPackets 858
scalar World.node[922].nic.mac1609_4 DroppedPacketsInMac 0
scalar World.node[922].nic.mac1609_4 TooLittleTime 0
scalar World.node[922].nic.mac1609_4 TimesIntoBackoff 826
scalar World.node[922].nic.mac1609_4 SlotsBackoff 6189
scalar World.node[922].nic.mac1609_4 NumInternalContention 0
scalar World.node[922].nic.mac1609_4 totalBusyTime 1.233662010306
scalar World.node[941].appl.middleware.CaService #cam_sent 917
scalar World.node[941].appl.middleware.ExampleService #full_proofs 1
scalar World.node[941].appl.middleware.ExampleService #half_proofs 4
scalar World.node[941].appl.middleware.ExampleService #failed_proofs 0
scalar World.node[941].appl.middleware.ExampleService #loc_proof_send 49
scalar World.node[941].nic.phy80211p busyTime 0.0020395717761556
scalar World.node[941].nic.mac1609_4 ReceivedUnicastPackets 0
scalar World.node[941].nic.mac1609_4 ReceivedBroadcasts 4741
scalar World.node[941].nic.mac1609_4 SentPackets 966
scalar World.node[941].nic.mac1609_4 SentAcknowledgements 0
scalar World.node[941].nic.mac1609_4 SNIRLostPackets 488
scalar World.node[941].nic.mac1609_4 RXTXLostPackets 215
scalar World.node[941].nic.mac1609_4 TotalLostPackets 703
scalar World.node[941].nic.mac1609_4 DroppedPacketsInMac 0
scalar World.node[941].nic.mac1609_4 TooLittleTime 0
scalar World.node[941].nic.mac1609_4 TimesIntoBackoff 966
scalar World.node[941].nic.mac1609_4 SlotsBackoff 7372
scalar World.node[941].nic.mac1609_4 NumInternalContention 0
scalar World.node[941].nic.mac1609_4 totalBusyTime 0.964473954128

