version 2
run Obstacles-0-20191117-12:13:26-19092
attr configname Obstacles
attr datetime 20191117-12:13:26
attr experiment Obstacles
attr inifile omnetpp.ini
attr iterationvars $0=0
attr iterationvarsf 0-
attr measurement $0=0
attr network artery.veins.World
attr processid 19092
attr repetition 0
attr replication #0
attr resultdir results
attr runnumber 0
attr seedset 0
param *.traci.launcher.sumocfg "\"Obstacles/run.sumo.cfg\""
param *.withObstacles true
param *.obstacles.obstacles "xmldoc(\"config_obstacles.xml\", \"//AnalogueModel[@type='SimpleObstacleShadowing']/obstacles\")"
param *.node[*].nic.mac1609_4.txPower 20mW
param *.node[*].nic.phy80211p.decider "xmldoc(\"config_obstacles.xml\")"
param *.node[*].nic.phy80211p.analogueModels "xmldoc(\"config_obstacles.xml\")"
param *.node[*].applType "\"artery.veins.ApplicationLayer\""
param *.node[*].appl.middleware.updateInterval 0.1s
param *.node[*].appl.middleware.datetime "\"2013-06-01 12:35:00\""
param *.node[*].appl.middleware.services "xmldoc(\"services.xml\")"
param *.node[*].appl.middleware.ExampleService.DecisionLogic 0
param *.node[*].appl.middleware.ExampleService.NeighboringWindow 60
param *.traci.core.version -1
param *.traci.launcher.typename "\"PosixLauncher\""
param *.playgroundSizeX 4000m
param *.playgroundSizeY 4000m
param *.playgroundSizeZ 50m
param *.connectionManager.maxInterfDist 1500m
param *.connectionManager.sendDirect true
param *.connectionManager.coreDebug false

scalar World.node[2].appl.middleware.CaService #cam_sent 56
scalar World.node[2].appl.middleware.ExampleService #full_proofs 0
scalar World.node[2].appl.middleware.ExampleService #half_proofs 0
scalar World.node[2].appl.middleware.ExampleService #failed_proofs 0
scalar World.node[2].appl.middleware.ExampleService #loc_proof_send 0
scalar World.node[2].nic.phy80211p busyTime 2.7111111111111e-05
scalar World.node[2].nic.mac1609_4 ReceivedUnicastPackets 0
scalar World.node[2].nic.mac1609_4 ReceivedBroadcasts 3
scalar World.node[2].nic.mac1609_4 SentPackets 56
scalar World.node[2].nic.mac1609_4 SentAcknowledgements 0
scalar World.node[2].nic.mac1609_4 SNIRLostPackets 0
scalar World.node[2].nic.mac1609_4 RXTXLostPackets 0
scalar World.node[2].nic.mac1609_4 TotalLostPackets 0
scalar World.node[2].nic.mac1609_4 DroppedPacketsInMac 0
scalar World.node[2].nic.mac1609_4 TooLittleTime 0
scalar World.node[2].nic.mac1609_4 TimesIntoBackoff 56
scalar World.node[2].nic.mac1609_4 SlotsBackoff 433
scalar World.node[2].nic.mac1609_4 NumInternalContention 0
scalar World.node[2].nic.mac1609_4 totalBusyTime 0.009696
scalar World.node[3].appl.middleware.CaService #cam_sent 94
scalar World.node[3].appl.middleware.ExampleService #full_proofs 1
scalar World.node[3].appl.middleware.ExampleService #half_proofs 0
scalar World.node[3].appl.middleware.ExampleService #failed_proofs 0
scalar World.node[3].appl.middleware.ExampleService #loc_proof_send 1
scalar World.node[3].nic.phy80211p busyTime 0.000246
scalar World.node[3].nic.mac1609_4 ReceivedUnicastPackets 0
scalar World.node[3].nic.mac1609_4 ReceivedBroadcasts 38
scalar World.node[3].nic.mac1609_4 SentPackets 95
scalar World.node[3].nic.mac1609_4 SentAcknowledgements 0
scalar World.node[3].nic.mac1609_4 SNIRLostPackets 4
scalar World.node[3].nic.mac1609_4 RXTXLostPackets 0
scalar World.node[3].nic.mac1609_4 TotalLostPackets 4
scalar World.node[3].nic.mac1609_4 DroppedPacketsInMac 0
scalar World.node[3].nic.mac1609_4 TooLittleTime 0
scalar World.node[3].nic.mac1609_4 TimesIntoBackoff 95
scalar World.node[3].nic.mac1609_4 SlotsBackoff 718
scalar World.node[3].nic.mac1609_4 NumInternalContention 0
scalar World.node[3].nic.mac1609_4 totalBusyTime 0.022431
scalar World.node[9].appl.middleware.CaService #cam_sent 104
scalar World.node[9].appl.middleware.ExampleService #full_proofs 0
scalar World.node[9].appl.middleware.ExampleService #half_proofs 0
scalar World.node[9].appl.middleware.ExampleService #failed_proofs 0
scalar World.node[9].appl.middleware.ExampleService #loc_proof_send 0
scalar World.node[9].nic.phy80211p busyTime 0.00042193548387097
scalar World.node[9].nic.mac1609_4 ReceivedUnicastPackets 0
scalar World.node[9].nic.mac1609_4 ReceivedBroadcasts 55
scalar World.node[9].nic.mac1609_4 SentPackets 104
scalar World.node[9].nic.mac1609_4 SentAcknowledgements 0
scalar World.node[9].nic.mac1609_4 SNIRLostPackets 25
scalar World.node[9].nic.mac1609_4 RXTXLostPackets 0
scalar World.node[9].nic.mac1609_4 TotalLostPackets 25
scalar World.node[9].nic.mac1609_4 DroppedPacketsInMac 0
scalar World.node[9].nic.mac1609_4 TooLittleTime 0
scalar World.node[9].nic.mac1609_4 TimesIntoBackoff 104
scalar World.node[9].nic.mac1609_4 SlotsBackoff 731
scalar World.node[9].nic.mac1609_4 NumInternalContention 0
scalar World.node[9].nic.mac1609_4 totalBusyTime 0.03016
scalar World.node[21].appl.middleware.CaService #cam_sent 34
scalar World.node[21].appl.middleware.ExampleService #full_proofs 0
scalar World.node[21].appl.middleware.ExampleService #half_proofs 0
scalar World.node[21].appl.middleware.ExampleService #failed_proofs 0
scalar World.node[21].appl.middleware.ExampleService #loc_proof_send 1
scalar World.node[21].nic.phy80211p busyTime 0.0029096
scalar World.node[21].nic.mac1609_4 ReceivedUnicastPackets 0
scalar World.node[21].nic.mac1609_4 ReceivedBroadcasts 172
scalar World.node[21].nic.mac1609_4 SentPackets 35
scalar World.node[21].nic.mac1609_4 SentAcknowledgements 0
scalar World.node[21].nic.mac1609_4 SNIRLostPackets 7
scalar World.node[21].nic.mac1609_4 RXTXLostPackets 2
scalar World.node[21].nic.mac1609_4 TotalLostPackets 9
scalar World.node[21].nic.mac1609_4 DroppedPacketsInMac 0
scalar World.node[21].nic.mac1609_4 TooLittleTime 0
scalar World.node[21].nic.mac1609_4 TimesIntoBackoff 35
scalar World.node[21].nic.mac1609_4 SlotsBackoff 249
scalar World.node[21].nic.mac1609_4 NumInternalContention 0
scalar World.node[21].nic.mac1609_4 totalBusyTime 0.034787
scalar World.node[0].appl.middleware.CaService #cam_sent 208
scalar World.node[0].appl.middleware.ExampleService #full_proofs 1
scalar World.node[0].appl.middleware.ExampleService #half_proofs 0
scalar World.node[0].appl.middleware.ExampleService #failed_proofs 0
scalar World.node[0].appl.middleware.ExampleService #loc_proof_send 5
scalar World.node[0].nic.phy80211p busyTime 0.0010612830188679
scalar World.node[0].nic.mac1609_4 ReceivedUnicastPackets 0
scalar World.node[0].nic.mac1609_4 ReceivedBroadcasts 672
scalar World.node[0].nic.mac1609_4 SentPackets 213
scalar World.node[0].nic.mac1609_4 SentAcknowledgements 0
scalar World.node[0].nic.mac1609_4 SNIRLostPackets 21
scalar World.node[0].nic.mac1609_4 RXTXLostPackets 2
scalar World.node[0].nic.mac1609_4 TotalLostPackets 23
scalar World.node[0].nic.mac1609_4 DroppedPacketsInMac 0
scalar World.node[0].nic.mac1609_4 TooLittleTime 0
scalar World.node[0].nic.mac1609_4 TimesIntoBackoff 213
scalar World.node[0].nic.mac1609_4 SlotsBackoff 1549
scalar World.node[0].nic.mac1609_4 NumInternalContention 0
scalar World.node[0].nic.mac1609_4 totalBusyTime 0.147381
scalar World.node[1].appl.middleware.CaService #cam_sent 274
scalar World.node[1].appl.middleware.ExampleService #full_proofs 1
scalar World.node[1].appl.middleware.ExampleService #half_proofs 0
scalar World.node[1].appl.middleware.ExampleService #failed_proofs 0
scalar World.node[1].appl.middleware.ExampleService #loc_proof_send 8
scalar World.node[1].nic.phy80211p busyTime 0.0012963809523809
scalar World.node[1].nic.mac1609_4 ReceivedUnicastPackets 0
scalar World.node[1].nic.mac1609_4 ReceivedBroadcasts 818
scalar World.node[1].nic.mac1609_4 SentPackets 282
scalar World.node[1].nic.mac1609_4 SentAcknowledgements 0
scalar World.node[1].nic.mac1609_4 SNIRLostPackets 18
scalar World.node[1].nic.mac1609_4 RXTXLostPackets 13
scalar World.node[1].nic.mac1609_4 TotalLostPackets 31
scalar World.node[1].nic.mac1609_4 DroppedPacketsInMac 0
scalar World.node[1].nic.mac1609_4 TooLittleTime 0
scalar World.node[1].nic.mac1609_4 TimesIntoBackoff 283
scalar World.node[1].nic.mac1609_4 SlotsBackoff 2073
scalar World.node[1].nic.mac1609_4 NumInternalContention 0
scalar World.node[1].nic.mac1609_4 totalBusyTime 0.181906170736
scalar World.node[6].appl.middleware.CaService #cam_sent 342
scalar World.node[6].appl.middleware.ExampleService #full_proofs 0
scalar World.node[6].appl.middleware.ExampleService #half_proofs 0
scalar World.node[6].appl.middleware.ExampleService #failed_proofs 1
scalar World.node[6].appl.middleware.ExampleService #loc_proof_send 7
scalar World.node[6].nic.phy80211p busyTime 0.0011212773109244
scalar World.node[6].nic.mac1609_4 ReceivedUnicastPackets 0
scalar World.node[6].nic.mac1609_4 ReceivedBroadcasts 750
scalar World.node[6].nic.mac1609_4 SentPackets 349
scalar World.node[6].nic.mac1609_4 SentAcknowledgements 0
scalar World.node[6].nic.mac1609_4 SNIRLostPackets 74
scalar World.node[6].nic.mac1609_4 RXTXLostPackets 7
scalar World.node[6].nic.mac1609_4 TotalLostPackets 81
scalar World.node[6].nic.mac1609_4 DroppedPacketsInMac 0
scalar World.node[6].nic.mac1609_4 TooLittleTime 0
scalar World.node[6].nic.mac1609_4 TimesIntoBackoff 351
scalar World.node[6].nic.mac1609_4 SlotsBackoff 2525
scalar World.node[6].nic.mac1609_4 NumInternalContention 0
scalar World.node[6].nic.mac1609_4 totalBusyTime 0.189973
scalar World.node[19].appl.middleware.CaService #cam_sent 210
scalar World.node[19].appl.middleware.ExampleService #full_proofs 0
scalar World.node[19].appl.middleware.ExampleService #half_proofs 1
scalar World.node[19].appl.middleware.ExampleService #failed_proofs 0
scalar World.node[19].appl.middleware.ExampleService #loc_proof_send 7
scalar World.node[19].nic.phy80211p busyTime 0.0029936842105263
scalar World.node[19].nic.mac1609_4 ReceivedUnicastPackets 0
scalar World.node[19].nic.mac1609_4 ReceivedBroadcasts 1290
scalar World.node[19].nic.mac1609_4 SentPackets 217
scalar World.node[19].nic.mac1609_4 SentAcknowledgements 0
scalar World.node[19].nic.mac1609_4 SNIRLostPackets 113
scalar World.node[19].nic.mac1609_4 RXTXLostPackets 10
scalar World.node[19].nic.mac1609_4 TotalLostPackets 123
scalar World.node[19].nic.mac1609_4 DroppedPacketsInMac 0
scalar World.node[19].nic.mac1609_4 TooLittleTime 0
scalar World.node[19].nic.mac1609_4 TimesIntoBackoff 220
scalar World.node[19].nic.mac1609_4 SlotsBackoff 1617
scalar World.node[19].nic.mac1609_4 NumInternalContention 0
scalar World.node[19].nic.mac1609_4 totalBusyTime 0.261153063708
scalar World.node[22].appl.middleware.CaService #cam_sent 188
scalar World.node[22].appl.middleware.ExampleService #full_proofs 0
scalar World.node[22].appl.middleware.ExampleService #half_proofs 1
scalar World.node[22].appl.middleware.ExampleService #failed_proofs 0
scalar World.node[22].appl.middleware.ExampleService #loc_proof_send 3
scalar World.node[22].nic.phy80211p busyTime 0.0030501428571428
scalar World.node[22].nic.mac1609_4 ReceivedUnicastPackets 0
scalar World.node[22].nic.mac1609_4 ReceivedBroadcasts 950
scalar World.node[22].nic.mac1609_4 SentPackets 191
scalar World.node[22].nic.mac1609_4 SentAcknowledgements 0
scalar World.node[22].nic.mac1609_4 SNIRLostPackets 100
scalar World.node[22].nic.mac1609_4 RXTXLostPackets 11
scalar World.node[22].nic.mac1609_4 TotalLostPackets 111
scalar World.node[22].nic.mac1609_4 DroppedPacketsInMac 0
scalar World.node[22].nic.mac1609_4 TooLittleTime 0
scalar World.node[22].nic.mac1609_4 TimesIntoBackoff 191
scalar World.node[22].nic.mac1609_4 SlotsBackoff 1479
scalar World.node[22].nic.mac1609_4 NumInternalContention 0
scalar World.node[22].nic.mac1609_4 totalBusyTime 0.201263
scalar World.node[13].appl.middleware.CaService #cam_sent 337
scalar World.node[13].appl.middleware.ExampleService #full_proofs 0
scalar World.node[13].appl.middleware.ExampleService #half_proofs 2
scalar World.node[13].appl.middleware.ExampleService #failed_proofs 0
scalar World.node[13].appl.middleware.ExampleService #loc_proof_send 13
scalar World.node[13].nic.phy80211p busyTime 0.002474018018018
scalar World.node[13].nic.mac1609_4 ReceivedUnicastPackets 0
scalar World.node[13].nic.mac1609_4 ReceivedBroadcasts 1578
scalar World.node[13].nic.mac1609_4 SentPackets 350
scalar World.node[13].nic.mac1609_4 SentAcknowledgements 0
scalar World.node[13].nic.mac1609_4 SNIRLostPackets 128
scalar World.node[13].nic.mac1609_4 RXTXLostPackets 26
scalar World.node[13].nic.mac1609_4 TotalLostPackets 154
scalar World.node[13].nic.mac1609_4 DroppedPacketsInMac 0
scalar World.node[13].nic.mac1609_4 TooLittleTime 0
scalar World.node[13].nic.mac1609_4 TimesIntoBackoff 352
scalar World.node[13].nic.mac1609_4 SlotsBackoff 2668
scalar World.node[13].nic.mac1609_4 NumInternalContention 0
scalar World.node[13].nic.mac1609_4 totalBusyTime 0.327262415217
scalar World.node[8].appl.middleware.CaService #cam_sent 352
scalar World.node[8].appl.middleware.ExampleService #full_proofs 0
scalar World.node[8].appl.middleware.ExampleService #half_proofs 2
scalar World.node[8].appl.middleware.ExampleService #failed_proofs 0
scalar World.node[8].appl.middleware.ExampleService #loc_proof_send 13
scalar World.node[8].nic.phy80211p busyTime 0.0022429411764706
scalar World.node[8].nic.mac1609_4 ReceivedUnicastPackets 0
scalar World.node[8].nic.mac1609_4 ReceivedBroadcasts 1803
scalar World.node[8].nic.mac1609_4 SentPackets 365
scalar World.node[8].nic.mac1609_4 SentAcknowledgements 0
scalar World.node[8].nic.mac1609_4 SNIRLostPackets 83
scalar World.node[8].nic.mac1609_4 RXTXLostPackets 22
scalar World.node[8].nic.mac1609_4 TotalLostPackets 105
scalar World.node[8].nic.mac1609_4 DroppedPacketsInMac 0
scalar World.node[8].nic.mac1609_4 TooLittleTime 0
scalar World.node[8].nic.mac1609_4 TimesIntoBackoff 366
scalar World.node[8].nic.mac1609_4 SlotsBackoff 2717
scalar World.node[8].nic.mac1609_4 NumInternalContention 0
scalar World.node[8].nic.mac1609_4 totalBusyTime 0.361861015725
scalar World.node[35].appl.middleware.CaService #cam_sent 144
scalar World.node[35].appl.middleware.ExampleService #full_proofs 0
scalar World.node[35].appl.middleware.ExampleService #half_proofs 1
scalar World.node[35].appl.middleware.ExampleService #failed_proofs 0
scalar World.node[35].appl.middleware.ExampleService #loc_proof_send 4
scalar World.node[35].nic.phy80211p busyTime 0.0021216744186046
scalar World.node[35].nic.mac1609_4 ReceivedUnicastPackets 0
scalar World.node[35].nic.mac1609_4 ReceivedBroadcasts 495
scalar World.node[35].nic.mac1609_4 SentPackets 148
scalar World.node[35].nic.mac1609_4 SentAcknowledgements 0
scalar World.node[35].nic.mac1609_4 SNIRLostPackets 69
scalar World.node[35].nic.mac1609_4 RXTXLostPackets 12
scalar World.node[35].nic.mac1609_4 TotalLostPackets 81
scalar World.node[35].nic.mac1609_4 DroppedPacketsInMac 0
scalar World.node[35].nic.mac1609_4 TooLittleTime 0
scalar World.node[35].nic.mac1609_4 TimesIntoBackoff 149
scalar World.node[35].nic.mac1609_4 SlotsBackoff 1095
scalar World.node[35].nic.mac1609_4 NumInternalContention 0
scalar World.node[35].nic.mac1609_4 totalBusyTime 0.11472425163
scalar World.node[15].appl.middleware.CaService #cam_sent 409
scalar World.node[15].appl.middleware.ExampleService #full_proofs 0
scalar World.node[15].appl.middleware.ExampleService #half_proofs 1
scalar World.node[15].appl.middleware.ExampleService #failed_proofs 1
scalar World.node[15].appl.middleware.ExampleService #loc_proof_send 13
scalar World.node[15].nic.phy80211p busyTime 0.0028314626865671
scalar World.node[15].nic.mac1609_4 ReceivedUnicastPackets 0
scalar World.node[15].nic.mac1609_4 ReceivedBroadcasts 2261
scalar World.node[15].nic.mac1609_4 SentPackets 422
scalar World.node[15].nic.mac1609_4 SentAcknowledgements 0
scalar World.node[15].nic.mac1609_4 SNIRLostPackets 79
scalar World.node[15].nic.mac1609_4 RXTXLostPackets 30
scalar World.node[15].nic.mac1609_4 TotalLostPackets 109
scalar World.node[15].nic.mac1609_4 DroppedPacketsInMac 0
scalar World.node[15].nic.mac1609_4 TooLittleTime 0
scalar World.node[15].nic.mac1609_4 TimesIntoBackoff 423
scalar World.node[15].nic.mac1609_4 SlotsBackoff 3226
scalar World.node[15].nic.mac1609_4 NumInternalContention 0
scalar World.node[15].nic.mac1609_4 totalBusyTime 0.445758485829
scalar World.node[16].appl.middleware.CaService #cam_sent 351
scalar World.node[16].appl.middleware.ExampleService #full_proofs 1
scalar World.node[16].appl.middleware.ExampleService #half_proofs 1
scalar World.node[16].appl.middleware.ExampleService #failed_proofs 0
scalar World.node[16].appl.middleware.ExampleService #loc_proof_send 16
scalar World.node[16].nic.phy80211p busyTime 0.0027451603053435
scalar World.node[16].nic.mac1609_4 ReceivedUnicastPackets 0
scalar World.node[16].nic.mac1609_4 ReceivedBroadcasts 2066
scalar World.node[16].nic.mac1609_4 SentPackets 367
scalar World.node[16].nic.mac1609_4 SentAcknowledgements 0
scalar World.node[16].nic.mac1609_4 SNIRLostPackets 166
scalar World.node[16].nic.mac1609_4 RXTXLostPackets 21
scalar World.node[16].nic.mac1609_4 TotalLostPackets 187
scalar World.node[16].nic.mac1609_4 DroppedPacketsInMac 0
scalar World.node[16].nic.mac1609_4 TooLittleTime 0
scalar World.node[16].nic.mac1609_4 TimesIntoBackoff 368
scalar World.node[16].nic.mac1609_4 SlotsBackoff 2736
scalar World.node[16].nic.mac1609_4 NumInternalContention 0
scalar World.node[16].nic.mac1609_4 totalBusyTime 0.41461520103
scalar World.node[40].appl.middleware.CaService #cam_sent 92
scalar World.node[40].appl.middleware.ExampleService #full_proofs 0
scalar World.node[40].appl.middleware.ExampleService #half_proofs 0
scalar World.node[40].appl.middleware.ExampleService #failed_proofs 0
scalar World.node[40].appl.middleware.ExampleService #loc_proof_send 4
scalar World.node[40].nic.phy80211p busyTime 0.0035724444444444
scalar World.node[40].nic.mac1609_4 ReceivedUnicastPackets 0
scalar World.node[40].nic.mac1609_4 ReceivedBroadcasts 568
scalar World.node[40].nic.mac1609_4 SentPackets 96
scalar World.node[40].nic.mac1609_4 SentAcknowledgements 0
scalar World.node[40].nic.mac1609_4 SNIRLostPackets 24
scalar World.node[40].nic.mac1609_4 RXTXLostPackets 30
scalar World.node[40].nic.mac1609_4 TotalLostPackets 54
scalar World.node[40].nic.mac1609_4 DroppedPacketsInMac 0
scalar World.node[40].nic.mac1609_4 TooLittleTime 0
scalar World.node[40].nic.mac1609_4 TimesIntoBackoff 96
scalar World.node[40].nic.mac1609_4 SlotsBackoff 795
scalar World.node[40].nic.mac1609_4 NumInternalContention 0
scalar World.node[40].nic.mac1609_4 totalBusyTime 0.111352014621
scalar World.node[14].appl.middleware.CaService #cam_sent 482
scalar World.node[14].appl.middleware.ExampleService #full_proofs 1
scalar World.node[14].appl.middleware.ExampleService #half_proofs 1
scalar World.node[14].appl.middleware.ExampleService #failed_proofs 0
scalar World.node[14].appl.middleware.ExampleService #loc_proof_send 9
scalar World.node[14].nic.phy80211p busyTime 0.0026030555555555
scalar World.node[14].nic.mac1609_4 ReceivedUnicastPackets 0
scalar World.node[14].nic.mac1609_4 ReceivedBroadcasts 2144
scalar World.node[14].nic.mac1609_4 SentPackets 491
scalar World.node[14].nic.mac1609_4 SentAcknowledgements 0
scalar World.node[14].nic.mac1609_4 SNIRLostPackets 173
scalar World.node[14].nic.mac1609_4 RXTXLostPackets 20
scalar World.node[14].nic.mac1609_4 TotalLostPackets 193
scalar World.node[14].nic.mac1609_4 DroppedPacketsInMac 0
scalar World.node[14].nic.mac1609_4 TooLittleTime 0
scalar World.node[14].nic.mac1609_4 TimesIntoBackoff 491
scalar World.node[14].nic.mac1609_4 SlotsBackoff 3815
scalar World.node[14].nic.mac1609_4 NumInternalContention 0
scalar World.node[14].nic.mac1609_4 totalBusyTime 0.452235000012
scalar World.node[10].appl.middleware.CaService #cam_sent 399
scalar World.node[10].appl.middleware.ExampleService #full_proofs 0
scalar World.node[10].appl.middleware.ExampleService #half_proofs 2
scalar World.node[10].appl.middleware.ExampleService #failed_proofs 0
scalar World.node[10].appl.middleware.ExampleService #loc_proof_send 17
scalar World.node[10].nic.phy80211p busyTime 0.0030902138364779
scalar World.node[10].nic.mac1609_4 ReceivedUnicastPackets 0
scalar World.node[10].nic.mac1609_4 ReceivedBroadcasts 2925
scalar World.node[10].nic.mac1609_4 SentPackets 416
scalar World.node[10].nic.mac1609_4 SentAcknowledgements 0
scalar World.node[10].nic.mac1609_4 SNIRLostPackets 109
scalar World.node[10].nic.mac1609_4 RXTXLostPackets 42
scalar World.node[10].nic.mac1609_4 TotalLostPackets 151
scalar World.node[10].nic.mac1609_4 DroppedPacketsInMac 0
scalar World.node[10].nic.mac1609_4 TooLittleTime 0
scalar World.node[10].nic.mac1609_4 TimesIntoBackoff 418
scalar World.node[10].nic.mac1609_4 SlotsBackoff 3255
scalar World.node[10].nic.mac1609_4 NumInternalContention 0
scalar World.node[10].nic.mac1609_4 totalBusyTime 0.555168062608
scalar World.node[7].appl.middleware.CaService #cam_sent 484
scalar World.node[7].appl.middleware.ExampleService #full_proofs 0
scalar World.node[7].appl.middleware.ExampleService #half_proofs 1
scalar World.node[7].appl.middleware.ExampleService #failed_proofs 0
scalar World.node[7].appl.middleware.ExampleService #loc_proof_send 11
scalar World.node[7].nic.phy80211p busyTime 0.0017653333333333
scalar World.node[7].nic.mac1609_4 ReceivedUnicastPackets 0
scalar World.node[7].nic.mac1609_4 ReceivedBroadcasts 1745
scalar World.node[7].nic.mac1609_4 SentPackets 495
scalar World.node[7].nic.mac1609_4 SentAcknowledgements 0
scalar World.node[7].nic.mac1609_4 SNIRLostPackets 180
scalar World.node[7].nic.mac1609_4 RXTXLostPackets 37
scalar World.node[7].nic.mac1609_4 TotalLostPackets 217
scalar World.node[7].nic.mac1609_4 DroppedPacketsInMac 0
scalar World.node[7].nic.mac1609_4 TooLittleTime 0
scalar World.node[7].nic.mac1609_4 TimesIntoBackoff 495
scalar World.node[7].nic.mac1609_4 SlotsBackoff 3648
scalar World.node[7].nic.mac1609_4 NumInternalContention 0
scalar World.node[7].nic.mac1609_4 totalBusyTime 0.391111061568
scalar World.node[30].appl.middleware.CaService #cam_sent 275
scalar World.node[30].appl.middleware.ExampleService #full_proofs 0
scalar World.node[30].appl.middleware.ExampleService #half_proofs 1
scalar World.node[30].appl.middleware.ExampleService #failed_proofs 0
scalar World.node[30].appl.middleware.ExampleService #loc_proof_send 12
scalar World.node[30].nic.phy80211p busyTime 0.0036122197802197
scalar World.node[30].nic.mac1609_4 ReceivedUnicastPackets 0
scalar World.node[30].nic.mac1609_4 ReceivedBroadcasts 1865
scalar World.node[30].nic.mac1609_4 SentPackets 287
scalar World.node[30].nic.mac1609_4 SentAcknowledgements 0
scalar World.node[30].nic.mac1609_4 SNIRLostPackets 169
scalar World.node[30].nic.mac1609_4 RXTXLostPackets 27
scalar World.node[30].nic.mac1609_4 TotalLostPackets 196
scalar World.node[30].nic.mac1609_4 DroppedPacketsInMac 0
scalar World.node[30].nic.mac1609_4 TooLittleTime 0
scalar World.node[30].nic.mac1609_4 TimesIntoBackoff 288
scalar World.node[30].nic.mac1609_4 SlotsBackoff 2098
scalar World.node[30].nic.mac1609_4 NumInternalContention 0
scalar World.node[30].nic.mac1609_4 totalBusyTime 0.372319651394
scalar World.node[27].appl.middleware.CaService #cam_sent 374
scalar World.node[27].appl.middleware.ExampleService #full_proofs 1
scalar World.node[27].appl.middleware.ExampleService #half_proofs 1
scalar World.node[27].appl.middleware.ExampleService #failed_proofs 0
scalar World.node[27].appl.middleware.ExampleService #loc_proof_send 13
scalar World.node[27].nic.phy80211p busyTime 0.0030949915966386
scalar World.node[27].nic.mac1609_4 ReceivedUnicastPackets 0
scalar World.node[27].nic.mac1609_4 ReceivedBroadcasts 2041
scalar World.node[27].nic.mac1609_4 SentPackets 387
scalar World.node[27].nic.mac1609_4 SentAcknowledgements 0
scalar World.node[27].nic.mac1609_4 SNIRLostPackets 231
scalar World.node[27].nic.mac1609_4 RXTXLostPackets 68
scalar World.node[27].nic.mac1609_4 TotalLostPackets 299
scalar World.node[27].nic.mac1609_4 DroppedPacketsInMac 0
scalar World.node[27].nic.mac1609_4 TooLittleTime 0
scalar World.node[27].nic.mac1609_4 TimesIntoBackoff 389
scalar World.node[27].nic.mac1609_4 SlotsBackoff 2772
scalar World.node[27].nic.mac1609_4 NumInternalContention 0
scalar World.node[27].nic.mac1609_4 totalBusyTime 0.429803712701
scalar World.node[33].appl.middleware.CaService #cam_sent 252
scalar World.node[33].appl.middleware.ExampleService #full_proofs 0
scalar World.node[33].appl.middleware.ExampleService #half_proofs 2
scalar World.node[33].appl.middleware.ExampleService #failed_proofs 0
scalar World.node[33].appl.middleware.ExampleService #loc_proof_send 19
scalar World.node[33].nic.phy80211p busyTime 0.0040597979797979
scalar World.node[33].nic.mac1609_4 ReceivedUnicastPackets 0
scalar World.node[33].nic.mac1609_4 ReceivedBroadcasts 2234
scalar World.node[33].nic.mac1609_4 SentPackets 271
scalar World.node[33].nic.mac1609_4 SentAcknowledgements 0
scalar World.node[33].nic.mac1609_4 SNIRLostPackets 265
scalar World.node[33].nic.mac1609_4 RXTXLostPackets 58
scalar World.node[33].nic.mac1609_4 TotalLostPackets 323
scalar World.node[33].nic.mac1609_4 DroppedPacketsInMac 0
scalar World.node[33].nic.mac1609_4 TooLittleTime 0
scalar World.node[33].nic.mac1609_4 TimesIntoBackoff 272
scalar World.node[33].nic.mac1609_4 SlotsBackoff 2128
scalar World.node[33].nic.mac1609_4 NumInternalContention 0
scalar World.node[33].nic.mac1609_4 totalBusyTime 0.440999152499
scalar World.node[31].appl.middleware.CaService #cam_sent 373
scalar World.node[31].appl.middleware.ExampleService #full_proofs 0
scalar World.node[31].appl.middleware.ExampleService #half_proofs 1
scalar World.node[31].appl.middleware.ExampleService #failed_proofs 0
scalar World.node[31].appl.middleware.ExampleService #loc_proof_send 11
scalar World.node[31].nic.phy80211p busyTime 0.0027243389830508
scalar World.node[31].nic.mac1609_4 ReceivedUnicastPackets 0
scalar World.node[31].nic.mac1609_4 ReceivedBroadcasts 1841
scalar World.node[31].nic.mac1609_4 SentPackets 384
scalar World.node[31].nic.mac1609_4 SentAcknowledgements 0
scalar World.node[31].nic.mac1609_4 SNIRLostPackets 149
scalar World.node[31].nic.mac1609_4 RXTXLostPackets 45
scalar World.node[31].nic.mac1609_4 TotalLostPackets 194
scalar World.node[31].nic.mac1609_4 DroppedPacketsInMac 0
scalar World.node[31].nic.mac1609_4 TooLittleTime 0
scalar World.node[31].nic.mac1609_4 TimesIntoBackoff 385
scalar World.node[31].nic.mac1609_4 SlotsBackoff 2906
scalar World.node[31].nic.mac1609_4 NumInternalContention 0
scalar World.node[31].nic.mac1609_4 totalBusyTime 0.380521152451
scalar World.node[24].appl.middleware.CaService #cam_sent 424
scalar World.node[24].appl.middleware.ExampleService #full_proofs 0
scalar World.node[24].appl.middleware.ExampleService #half_proofs 2
scalar World.node[24].appl.middleware.ExampleService #failed_proofs 0
scalar World.node[24].appl.middleware.ExampleService #loc_proof_send 13
scalar World.node[24].nic.phy80211p busyTime 0.0025099428571428
scalar World.node[24].nic.mac1609_4 ReceivedUnicastPackets 0
scalar World.node[24].nic.mac1609_4 ReceivedBroadcasts 2058
scalar World.node[24].nic.mac1609_4 SentPackets 437
scalar World.node[24].nic.mac1609_4 SentAcknowledgements 0
scalar World.node[24].nic.mac1609_4 SNIRLostPackets 114
scalar World.node[24].nic.mac1609_4 RXTXLostPackets 17
scalar World.node[24].nic.mac1609_4 TotalLostPackets 131
scalar World.node[24].nic.mac1609_4 DroppedPacketsInMac 0
scalar World.node[24].nic.mac1609_4 TooLittleTime 0
scalar World.node[24].nic.mac1609_4 TimesIntoBackoff 437
scalar World.node[24].nic.mac1609_4 SlotsBackoff 3233
scalar World.node[24].nic.mac1609_4 NumInternalContention 0
scalar World.node[24].nic.mac1609_4 totalBusyTime 0.419853704285
scalar World.node[12].appl.middleware.CaService #cam_sent 641
scalar World.node[12].appl.middleware.ExampleService #full_proofs 0
scalar World.node[12].appl.middleware.ExampleService #half_proofs 4
scalar World.node[12].appl.middleware.ExampleService #failed_proofs 0
scalar World.node[12].appl.middleware.ExampleService #loc_proof_send 17
scalar World.node[12].nic.phy80211p busyTime 0.0025074170854271
scalar World.node[12].nic.mac1609_4 ReceivedUnicastPackets 0
scalar World.node[12].nic.mac1609_4 ReceivedBroadcasts 2787
scalar World.node[12].nic.mac1609_4 SentPackets 658
scalar World.node[12].nic.mac1609_4 SentAcknowledgements 0
scalar World.node[12].nic.mac1609_4 SNIRLostPackets 298
scalar World.node[12].nic.mac1609_4 RXTXLostPackets 46
scalar World.node[12].nic.mac1609_4 TotalLostPackets 344
scalar World.node[12].nic.mac1609_4 DroppedPacketsInMac 0
scalar World.node[12].nic.mac1609_4 TooLittleTime 0
scalar World.node[12].nic.mac1609_4 TimesIntoBackoff 659
scalar World.node[12].nic.mac1609_4 SlotsBackoff 5046
scalar World.node[12].nic.mac1609_4 NumInternalContention 0
scalar World.node[12].nic.mac1609_4 totalBusyTime 0.602018708269
scalar World.node[53].appl.middleware.CaService #cam_sent 108
scalar World.node[53].appl.middleware.ExampleService #full_proofs 0
scalar World.node[53].appl.middleware.ExampleService #half_proofs 0
scalar World.node[53].appl.middleware.ExampleService #failed_proofs 0
scalar World.node[53].appl.middleware.ExampleService #loc_proof_send 0
scalar World.node[53].nic.phy80211p busyTime 0.0009985
scalar World.node[53].nic.mac1609_4 ReceivedUnicastPackets 0
scalar World.node[53].nic.mac1609_4 ReceivedBroadcasts 168
scalar World.node[53].nic.mac1609_4 SentPackets 108
scalar World.node[53].nic.mac1609_4 SentAcknowledgements 0
scalar World.node[53].nic.mac1609_4 SNIRLostPackets 28
scalar World.node[53].nic.mac1609_4 RXTXLostPackets 0
scalar World.node[53].nic.mac1609_4 TotalLostPackets 28
scalar World.node[53].nic.mac1609_4 DroppedPacketsInMac 0
scalar World.node[53].nic.mac1609_4 TooLittleTime 0
scalar World.node[53].nic.mac1609_4 TimesIntoBackoff 108
scalar World.node[53].nic.mac1609_4 SlotsBackoff 866
scalar World.node[53].nic.mac1609_4 NumInternalContention 0
scalar World.node[53].nic.mac1609_4 totalBusyTime 0.049692
scalar World.node[26].appl.middleware.CaService #cam_sent 411
scalar World.node[26].appl.middleware.ExampleService #full_proofs 1
scalar World.node[26].appl.middleware.ExampleService #half_proofs 1
scalar World.node[26].appl.middleware.ExampleService #failed_proofs 1
scalar World.node[26].appl.middleware.ExampleService #loc_proof_send 17
scalar World.node[26].nic.phy80211p busyTime 0.0026628493150685
scalar World.node[26].nic.mac1609_4 ReceivedUnicastPackets 0
scalar World.node[26].nic.mac1609_4 ReceivedBroadcasts 2149
scalar World.node[26].nic.mac1609_4 SentPackets 428
scalar World.node[26].nic.mac1609_4 SentAcknowledgements 0
scalar World.node[26].nic.mac1609_4 SNIRLostPackets 259
scalar World.node[26].nic.mac1609_4 RXTXLostPackets 43
scalar World.node[26].nic.mac1609_4 TotalLostPackets 302
scalar World.node[26].nic.mac1609_4 DroppedPacketsInMac 0
scalar World.node[26].nic.mac1609_4 TooLittleTime 0
scalar World.node[26].nic.mac1609_4 TimesIntoBackoff 430
scalar World.node[26].nic.mac1609_4 SlotsBackoff 3205
scalar World.node[26].nic.mac1609_4 NumInternalContention 0
scalar World.node[26].nic.mac1609_4 totalBusyTime 0.4537
scalar World.node[38].appl.middleware.CaService #cam_sent 320
scalar World.node[38].appl.middleware.ExampleService #full_proofs 1
scalar World.node[38].appl.middleware.ExampleService #half_proofs 1
scalar World.node[38].appl.middleware.ExampleService #failed_proofs 0
scalar World.node[38].appl.middleware.ExampleService #loc_proof_send 11
scalar World.node[38].nic.phy80211p busyTime 0.0029516
scalar World.node[38].nic.mac1609_4 ReceivedUnicastPackets 0
scalar World.node[38].nic.mac1609_4 ReceivedBroadcasts 1656
scalar World.node[38].nic.mac1609_4 SentPackets 331
scalar World.node[38].nic.mac1609_4 SentAcknowledgements 0
scalar World.node[38].nic.mac1609_4 SNIRLostPackets 172
scalar World.node[38].nic.mac1609_4 RXTXLostPackets 32
scalar World.node[38].nic.mac1609_4 TotalLostPackets 204
scalar World.node[38].nic.mac1609_4 DroppedPacketsInMac 0
scalar World.node[38].nic.mac1609_4 TooLittleTime 0
scalar World.node[38].nic.mac1609_4 TimesIntoBackoff 333
scalar World.node[38].nic.mac1609_4 SlotsBackoff 2427
scalar World.node[38].nic.mac1609_4 NumInternalContention 0
scalar World.node[38].nic.mac1609_4 totalBusyTime 0.346875361603
scalar World.node[63].appl.middleware.CaService #cam_sent 38
scalar World.node[63].appl.middleware.ExampleService #full_proofs 0
scalar World.node[63].appl.middleware.ExampleService #half_proofs 0
scalar World.node[63].appl.middleware.ExampleService #failed_proofs 0
scalar World.node[63].appl.middleware.ExampleService #loc_proof_send 2
scalar World.node[63].nic.phy80211p busyTime 0.0034756363636364
scalar World.node[63].nic.mac1609_4 ReceivedUnicastPackets 0
scalar World.node[63].nic.mac1609_4 ReceivedBroadcasts 207
scalar World.node[63].nic.mac1609_4 SentPackets 40
scalar World.node[63].nic.mac1609_4 SentAcknowledgements 0
scalar World.node[63].nic.mac1609_4 SNIRLostPackets 38
scalar World.node[63].nic.mac1609_4 RXTXLostPackets 6
scalar World.node[63].nic.mac1609_4 TotalLostPackets 44
scalar World.node[63].nic.mac1609_4 DroppedPacketsInMac 0
scalar World.node[63].nic.mac1609_4 TooLittleTime 0
scalar World.node[63].nic.mac1609_4 TimesIntoBackoff 40
scalar World.node[63].nic.mac1609_4 SlotsBackoff 296
scalar World.node[63].nic.mac1609_4 NumInternalContention 0
scalar World.node[63].nic.mac1609_4 totalBusyTime 0.042920064164
scalar World.node[54].appl.middleware.CaService #cam_sent 192
scalar World.node[54].appl.middleware.ExampleService #full_proofs 0
scalar World.node[54].appl.middleware.ExampleService #half_proofs 1
scalar World.node[54].appl.middleware.ExampleService #failed_proofs 0
scalar World.node[54].appl.middleware.ExampleService #loc_proof_send 12
scalar World.node[54].nic.phy80211p busyTime 0.0052388771929824
scalar World.node[54].nic.mac1609_4 ReceivedUnicastPackets 0
scalar World.node[54].nic.mac1609_4 ReceivedBroadcasts 1696
scalar World.node[54].nic.mac1609_4 SentPackets 204
scalar World.node[54].nic.mac1609_4 SentAcknowledgements 0
scalar World.node[54].nic.mac1609_4 SNIRLostPackets 167
scalar World.node[54].nic.mac1609_4 RXTXLostPackets 43
scalar World.node[54].nic.mac1609_4 TotalLostPackets 210
scalar World.node[54].nic.mac1609_4 DroppedPacketsInMac 0
scalar World.node[54].nic.mac1609_4 TooLittleTime 0
scalar World.node[54].nic.mac1609_4 TimesIntoBackoff 210
scalar World.node[54].nic.mac1609_4 SlotsBackoff 1731
scalar World.node[54].nic.mac1609_4 NumInternalContention 0
scalar World.node[54].nic.mac1609_4 totalBusyTime 0.325668348203
scalar World.node[20].appl.middleware.CaService #cam_sent 501
scalar World.node[20].appl.middleware.ExampleService #full_proofs 0
scalar World.node[20].appl.middleware.ExampleService #half_proofs 2
scalar World.node[20].appl.middleware.ExampleService #failed_proofs 1
scalar World.node[20].appl.middleware.ExampleService #loc_proof_send 28
scalar World.node[20].nic.phy80211p busyTime 0.0032519796954314
scalar World.node[20].nic.mac1609_4 ReceivedUnicastPackets 0
scalar World.node[20].nic.mac1609_4 ReceivedBroadcasts 3735
scalar World.node[20].nic.mac1609_4 SentPackets 529
scalar World.node[20].nic.mac1609_4 SentAcknowledgements 0
scalar World.node[20].nic.mac1609_4 SNIRLostPackets 243
scalar World.node[20].nic.mac1609_4 RXTXLostPackets 86
scalar World.node[20].nic.mac1609_4 TotalLostPackets 329
scalar World.node[20].nic.mac1609_4 DroppedPacketsInMac 0
scalar World.node[20].nic.mac1609_4 TooLittleTime 0
scalar World.node[20].nic.mac1609_4 TimesIntoBackoff 533
scalar World.node[20].nic.mac1609_4 SlotsBackoff 4004
scalar World.node[20].nic.mac1609_4 NumInternalContention 0
scalar World.node[20].nic.mac1609_4 totalBusyTime 0.717945805575
scalar World.node[4].appl.middleware.CaService #cam_sent 722
scalar World.node[4].appl.middleware.ExampleService #full_proofs 1
scalar World.node[4].appl.middleware.ExampleService #half_proofs 2
scalar World.node[4].appl.middleware.ExampleService #failed_proofs 0
scalar World.node[4].appl.middleware.ExampleService #loc_proof_send 24
scalar World.node[4].nic.phy80211p busyTime 0.002060496124031
scalar World.node[4].nic.mac1609_4 ReceivedUnicastPackets 0
scalar World.node[4].nic.mac1609_4 ReceivedBroadcasts 2910
scalar World.node[4].nic.mac1609_4 SentPackets 746
scalar World.node[4].nic.mac1609_4 SentAcknowledgements 0
scalar World.node[4].nic.mac1609_4 SNIRLostPackets 382
scalar World.node[4].nic.mac1609_4 RXTXLostPackets 40
scalar World.node[4].nic.mac1609_4 TotalLostPackets 422
scalar World.node[4].nic.mac1609_4 DroppedPacketsInMac 0
scalar World.node[4].nic.mac1609_4 TooLittleTime 0
scalar World.node[4].nic.mac1609_4 TimesIntoBackoff 756
scalar World.node[4].nic.mac1609_4 SlotsBackoff 5757
scalar World.node[4].nic.mac1609_4 NumInternalContention 0
scalar World.node[4].nic.mac1609_4 totalBusyTime 0.649266329679
scalar World.node[36].appl.middleware.CaService #cam_sent 314
scalar World.node[36].appl.middleware.ExampleService #full_proofs 0
scalar World.node[36].appl.middleware.ExampleService #half_proofs 2
scalar World.node[36].appl.middleware.ExampleService #failed_proofs 0
scalar World.node[36].appl.middleware.ExampleService #loc_proof_send 20
scalar World.node[36].nic.phy80211p busyTime 0.0038536615384615
scalar World.node[36].nic.mac1609_4 ReceivedUnicastPackets 0
scalar World.node[36].nic.mac1609_4 ReceivedBroadcasts 2950
scalar World.node[36].nic.mac1609_4 SentPackets 334
scalar World.node[36].nic.mac1609_4 SentAcknowledgements 0
scalar World.node[36].nic.mac1609_4 SNIRLostPackets 156
scalar World.node[36].nic.mac1609_4 RXTXLostPackets 66
scalar World.node[36].nic.mac1609_4 TotalLostPackets 222
scalar World.node[36].nic.mac1609_4 DroppedPacketsInMac 0
scalar World.node[36].nic.mac1609_4 TooLittleTime 0
scalar World.node[36].nic.mac1609_4 TimesIntoBackoff 336
scalar World.node[36].nic.mac1609_4 SlotsBackoff 2383
scalar World.node[36].nic.mac1609_4 NumInternalContention 0
scalar World.node[36].nic.mac1609_4 totalBusyTime 0.549030824574
scalar World.node[25].appl.middleware.CaService #cam_sent 507
scalar World.node[25].appl.middleware.ExampleService #full_proofs 0
scalar World.node[25].appl.middleware.ExampleService #half_proofs 2
scalar World.node[25].appl.middleware.ExampleService #failed_proofs 1
scalar World.node[25].appl.middleware.ExampleService #loc_proof_send 27
scalar World.node[25].nic.phy80211p busyTime 0.0035114545454545
scalar World.node[25].nic.mac1609_4 ReceivedUnicastPackets 0
scalar World.node[25].nic.mac1609_4 ReceivedBroadcasts 3399
scalar World.node[25].nic.mac1609_4 SentPackets 534
scalar World.node[25].nic.mac1609_4 SentAcknowledgements 0
scalar World.node[25].nic.mac1609_4 SNIRLostPackets 451
scalar World.node[25].nic.mac1609_4 RXTXLostPackets 42
scalar World.node[25].nic.mac1609_4 TotalLostPackets 493
scalar World.node[25].nic.mac1609_4 DroppedPacketsInMac 0
scalar World.node[25].nic.mac1609_4 TooLittleTime 0
scalar World.node[25].nic.mac1609_4 TimesIntoBackoff 534
scalar World.node[25].nic.mac1609_4 SlotsBackoff 3984
scalar World.node[25].nic.mac1609_4 NumInternalContention 0
scalar World.node[25].nic.mac1609_4 totalBusyTime 0.691374036716
scalar World.node[11].appl.middleware.CaService #cam_sent 663
scalar World.node[11].appl.middleware.ExampleService #full_proofs 1
scalar World.node[11].appl.middleware.ExampleService #half_proofs 3
scalar World.node[11].appl.middleware.ExampleService #failed_proofs 0
scalar World.node[11].appl.middleware.ExampleService #loc_proof_send 21
scalar World.node[11].nic.phy80211p busyTime 0.0027088796680498
scalar World.node[11].nic.mac1609_4 ReceivedUnicastPackets 0
scalar World.node[11].nic.mac1609_4 ReceivedBroadcasts 3573
scalar World.node[11].nic.mac1609_4 SentPackets 684
scalar World.node[11].nic.mac1609_4 SentAcknowledgements 0
scalar World.node[11].nic.mac1609_4 SNIRLostPackets 473
scalar World.node[11].nic.mac1609_4 RXTXLostPackets 40
scalar World.node[11].nic.mac1609_4 TotalLostPackets 513
scalar World.node[11].nic.mac1609_4 DroppedPacketsInMac 0
scalar World.node[11].nic.mac1609_4 TooLittleTime 0
scalar World.node[11].nic.mac1609_4 TimesIntoBackoff 686
scalar World.node[11].nic.mac1609_4 SlotsBackoff 4943
scalar World.node[11].nic.mac1609_4 NumInternalContention 0
scalar World.node[11].nic.mac1609_4 totalBusyTime 0.759892386798
scalar World.node[18].appl.middleware.CaService #cam_sent 538
scalar World.node[18].appl.middleware.ExampleService #full_proofs 0
scalar World.node[18].appl.middleware.ExampleService #half_proofs 3
scalar World.node[18].appl.middleware.ExampleService #failed_proofs 0
scalar World.node[18].appl.middleware.ExampleService #loc_proof_send 20
scalar World.node[18].nic.phy80211p busyTime 0.0023628056872038
scalar World.node[18].nic.mac1609_4 ReceivedUnicastPackets 0
scalar World.node[18].nic.mac1609_4 ReceivedBroadcasts 2856
scalar World.node[18].nic.mac1609_4 SentPackets 558
scalar World.node[18].nic.mac1609_4 SentAcknowledgements 0
scalar World.node[18].nic.mac1609_4 SNIRLostPackets 234
scalar World.node[18].nic.mac1609_4 RXTXLostPackets 52
scalar World.node[18].nic.mac1609_4 TotalLostPackets 286
scalar World.node[18].nic.mac1609_4 DroppedPacketsInMac 0
scalar World.node[18].nic.mac1609_4 TooLittleTime 0
scalar World.node[18].nic.mac1609_4 TimesIntoBackoff 559
scalar World.node[18].nic.mac1609_4 SlotsBackoff 4418
scalar World.node[18].nic.mac1609_4 NumInternalContention 0
scalar World.node[18].nic.mac1609_4 totalBusyTime 0.584158197382
scalar World.node[28].appl.middleware.CaService #cam_sent 419
scalar World.node[28].appl.middleware.ExampleService #full_proofs 0
scalar World.node[28].appl.middleware.ExampleService #half_proofs 3
scalar World.node[28].appl.middleware.ExampleService #failed_proofs 0
scalar World.node[28].appl.middleware.ExampleService #loc_proof_send 27
scalar World.node[28].nic.phy80211p busyTime 0.0033618390804597
scalar World.node[28].nic.mac1609_4 ReceivedUnicastPackets 0
scalar World.node[28].nic.mac1609_4 ReceivedBroadcasts 3178
scalar World.node[28].nic.mac1609_4 SentPackets 446
scalar World.node[28].nic.mac1609_4 SentAcknowledgements 0
scalar World.node[28].nic.mac1609_4 SNIRLostPackets 457
scalar World.node[28].nic.mac1609_4 RXTXLostPackets 96
scalar World.node[28].nic.mac1609_4 TotalLostPackets 553
scalar World.node[28].nic.mac1609_4 DroppedPacketsInMac 0
scalar World.node[28].nic.mac1609_4 TooLittleTime 0
scalar World.node[28].nic.mac1609_4 TimesIntoBackoff 449
scalar World.node[28].nic.mac1609_4 SlotsBackoff 3382
scalar World.node[28].nic.mac1609_4 NumInternalContention 0
scalar World.node[28].nic.mac1609_4 totalBusyTime 0.649328112226
scalar World.node[56].appl.middleware.CaService #cam_sent 169
scalar World.node[56].appl.middleware.ExampleService #full_proofs 0
scalar World.node[56].appl.middleware.ExampleService #half_proofs 1
scalar World.node[56].appl.middleware.ExampleService #failed_proofs 0
scalar World.node[56].appl.middleware.ExampleService #loc_proof_send 12
scalar World.node[56].nic.phy80211p busyTime 0.0028781111111111
scalar World.node[56].nic.mac1609_4 ReceivedUnicastPackets 0
scalar World.node[56].nic.mac1609_4 ReceivedBroadcasts 1208
scalar World.node[56].nic.mac1609_4 SentPackets 181
scalar World.node[56].nic.mac1609_4 SentAcknowledgements 0
scalar World.node[56].nic.mac1609_4 SNIRLostPackets 78
scalar World.node[56].nic.mac1609_4 RXTXLostPackets 60
scalar World.node[56].nic.mac1609_4 TotalLostPackets 138
scalar World.node[56].nic.mac1609_4 DroppedPacketsInMac 0
scalar World.node[56].nic.mac1609_4 TooLittleTime 0
scalar World.node[56].nic.mac1609_4 TimesIntoBackoff 182
scalar World.node[56].nic.mac1609_4 SlotsBackoff 1363
scalar World.node[56].nic.mac1609_4 NumInternalContention 0
scalar World.node[56].nic.mac1609_4 totalBusyTime 0.234109068475
scalar World.node[5].appl.middleware.CaService #cam_sent 866
scalar World.node[5].appl.middleware.ExampleService #full_proofs 1
scalar World.node[5].appl.middleware.ExampleService #half_proofs 3
scalar World.node[5].appl.middleware.ExampleService #failed_proofs 0
scalar World.node[5].appl.middleware.ExampleService #loc_proof_send 29
scalar World.node[5].nic.phy80211p busyTime 0.0022517971014492
scalar World.node[5].nic.mac1609_4 ReceivedUnicastPackets 0
scalar World.node[5].nic.mac1609_4 ReceivedBroadcasts 3608
scalar World.node[5].nic.mac1609_4 SentPackets 895
scalar World.node[5].nic.mac1609_4 SentAcknowledgements 0
scalar World.node[5].nic.mac1609_4 SNIRLostPackets 246
scalar World.node[5].nic.mac1609_4 RXTXLostPackets 88
scalar World.node[5].nic.mac1609_4 TotalLostPackets 334
scalar World.node[5].nic.mac1609_4 DroppedPacketsInMac 0
scalar World.node[5].nic.mac1609_4 TooLittleTime 0
scalar World.node[5].nic.mac1609_4 TimesIntoBackoff 901
scalar World.node[5].nic.mac1609_4 SlotsBackoff 6611
scalar World.node[5].nic.mac1609_4 NumInternalContention 0
scalar World.node[5].nic.mac1609_4 totalBusyTime 0.762343287099
scalar World.node[68].appl.middleware.CaService #cam_sent 92
scalar World.node[68].appl.middleware.ExampleService #full_proofs 0
scalar World.node[68].appl.middleware.ExampleService #half_proofs 0
scalar World.node[68].appl.middleware.ExampleService #failed_proofs 0
scalar World.node[68].appl.middleware.ExampleService #loc_proof_send 1
scalar World.node[68].nic.phy80211p busyTime 0.00079881481481482
scalar World.node[68].nic.mac1609_4 ReceivedUnicastPackets 0
scalar World.node[68].nic.mac1609_4 ReceivedBroadcasts 122
scalar World.node[68].nic.mac1609_4 SentPackets 93
scalar World.node[68].nic.mac1609_4 SentAcknowledgements 0
scalar World.node[68].nic.mac1609_4 SNIRLostPackets 14
scalar World.node[68].nic.mac1609_4 RXTXLostPackets 0
scalar World.node[68].nic.mac1609_4 TotalLostPackets 14
scalar World.node[68].nic.mac1609_4 DroppedPacketsInMac 0
scalar World.node[68].nic.mac1609_4 TooLittleTime 0
scalar World.node[68].nic.mac1609_4 TimesIntoBackoff 93
scalar World.node[68].nic.mac1609_4 SlotsBackoff 728
scalar World.node[68].nic.mac1609_4 NumInternalContention 0
scalar World.node[68].nic.mac1609_4 totalBusyTime 0.036565
scalar World.node[39].appl.middleware.CaService #cam_sent 424
scalar World.node[39].appl.middleware.ExampleService #full_proofs 0
scalar World.node[39].appl.middleware.ExampleService #half_proofs 2
scalar World.node[39].appl.middleware.ExampleService #failed_proofs 0
scalar World.node[39].appl.middleware.ExampleService #loc_proof_send 22
scalar World.node[39].nic.phy80211p busyTime 0.0032639496855346
scalar World.node[39].nic.mac1609_4 ReceivedUnicastPackets 0
scalar World.node[39].nic.mac1609_4 ReceivedBroadcasts 3035
scalar World.node[39].nic.mac1609_4 SentPackets 446
scalar World.node[39].nic.mac1609_4 SentAcknowledgements 0
scalar World.node[39].nic.mac1609_4 SNIRLostPackets 178
scalar World.node[39].nic.mac1609_4 RXTXLostPackets 83
scalar World.node[39].nic.mac1609_4 TotalLostPackets 261
scalar World.node[39].nic.mac1609_4 DroppedPacketsInMac 0
scalar World.node[39].nic.mac1609_4 TooLittleTime 0
scalar World.node[39].nic.mac1609_4 TimesIntoBackoff 447
scalar World.node[39].nic.mac1609_4 SlotsBackoff 3199
scalar World.node[39].nic.mac1609_4 NumInternalContention 0
scalar World.node[39].nic.mac1609_4 totalBusyTime 0.585430067803
scalar World.node[67].appl.middleware.CaService #cam_sent 172
scalar World.node[67].appl.middleware.ExampleService #full_proofs 0
scalar World.node[67].appl.middleware.ExampleService #half_proofs 0
scalar World.node[67].appl.middleware.ExampleService #failed_proofs 0
scalar World.node[67].appl.middleware.ExampleService #loc_proof_send 2
scalar World.node[67].nic.phy80211p busyTime 0.00053443137254902
scalar World.node[67].nic.mac1609_4 ReceivedUnicastPackets 0
scalar World.node[67].nic.mac1609_4 ReceivedBroadcasts 135
scalar World.node[67].nic.mac1609_4 SentPackets 174
scalar World.node[67].nic.mac1609_4 SentAcknowledgements 0
scalar World.node[67].nic.mac1609_4 SNIRLostPackets 35
scalar World.node[67].nic.mac1609_4 RXTXLostPackets 5
scalar World.node[67].nic.mac1609_4 TotalLostPackets 40
scalar World.node[67].nic.mac1609_4 DroppedPacketsInMac 0
scalar World.node[67].nic.mac1609_4 TooLittleTime 0
scalar World.node[67].nic.mac1609_4 TimesIntoBackoff 175
scalar World.node[67].nic.mac1609_4 SlotsBackoff 1287
scalar World.node[67].nic.mac1609_4 NumInternalContention 0
scalar World.node[67].nic.mac1609_4 totalBusyTime 0.055598
scalar World.node[57].appl.middleware.CaService #cam_sent 236
scalar World.node[57].appl.middleware.ExampleService #full_proofs 0
scalar World.node[57].appl.middleware.ExampleService #half_proofs 2
scalar World.node[57].appl.middleware.ExampleService #failed_proofs 0
scalar World.node[57].appl.middleware.ExampleService #loc_proof_send 19
scalar World.node[57].nic.phy80211p busyTime 0.0053422222222222
scalar World.node[57].nic.mac1609_4 ReceivedUnicastPackets 0
scalar World.node[57].nic.mac1609_4 ReceivedBroadcasts 3345
scalar World.node[57].nic.mac1609_4 SentPackets 255
scalar World.node[57].nic.mac1609_4 SentAcknowledgements 0
scalar World.node[57].nic.mac1609_4 SNIRLostPackets 233
scalar World.node[57].nic.mac1609_4 RXTXLostPackets 77
scalar World.node[57].nic.mac1609_4 TotalLostPackets 310
scalar World.node[57].nic.mac1609_4 DroppedPacketsInMac 0
scalar World.node[57].nic.mac1609_4 TooLittleTime 0
scalar World.node[57].nic.mac1609_4 TimesIntoBackoff 256
scalar World.node[57].nic.mac1609_4 SlotsBackoff 1943
scalar World.node[57].nic.mac1609_4 NumInternalContention 0
scalar World.node[57].nic.mac1609_4 totalBusyTime 0.610608232524
scalar World.node[32].appl.middleware.CaService #cam_sent 602
scalar World.node[32].appl.middleware.ExampleService #full_proofs 0
scalar World.node[32].appl.middleware.ExampleService #half_proofs 2
scalar World.node[32].appl.middleware.ExampleService #failed_proofs 1
scalar World.node[32].appl.middleware.ExampleService #loc_proof_send 24
scalar World.node[32].nic.phy80211p busyTime 0.0030695734597156
scalar World.node[32].nic.mac1609_4 ReceivedUnicastPackets 0
scalar World.node[32].nic.mac1609_4 ReceivedBroadcasts 3725
scalar World.node[32].nic.mac1609_4 SentPackets 626
scalar World.node[32].nic.mac1609_4 SentAcknowledgements 0
scalar World.node[32].nic.mac1609_4 SNIRLostPackets 290
scalar World.node[32].nic.mac1609_4 RXTXLostPackets 56
scalar World.node[32].nic.mac1609_4 TotalLostPackets 346
scalar World.node[32].nic.mac1609_4 DroppedPacketsInMac 0
scalar World.node[32].nic.mac1609_4 TooLittleTime 0
scalar World.node[32].nic.mac1609_4 TimesIntoBackoff 626
scalar World.node[32].nic.mac1609_4 SlotsBackoff 4694
scalar World.node[32].nic.mac1609_4 NumInternalContention 0
scalar World.node[32].nic.mac1609_4 totalBusyTime 0.74233044672
scalar World.node[79].appl.middleware.CaService #cam_sent 88
scalar World.node[79].appl.middleware.ExampleService #full_proofs 0
scalar World.node[79].appl.middleware.ExampleService #half_proofs 1
scalar World.node[79].appl.middleware.ExampleService #failed_proofs 0
scalar World.node[79].appl.middleware.ExampleService #loc_proof_send 5
scalar World.node[79].nic.phy80211p busyTime 0.0046809230769231
scalar World.node[79].nic.mac1609_4 ReceivedUnicastPackets 0
scalar World.node[79].nic.mac1609_4 ReceivedBroadcasts 573
scalar World.node[79].nic.mac1609_4 SentPackets 93
scalar World.node[79].nic.mac1609_4 SentAcknowledgements 0
scalar World.node[79].nic.mac1609_4 SNIRLostPackets 190
scalar World.node[79].nic.mac1609_4 RXTXLostPackets 10
scalar World.node[79].nic.mac1609_4 TotalLostPackets 200
scalar World.node[79].nic.mac1609_4 DroppedPacketsInMac 0
scalar World.node[79].nic.mac1609_4 TooLittleTime 0
scalar World.node[79].nic.mac1609_4 TimesIntoBackoff 93
scalar World.node[79].nic.mac1609_4 SlotsBackoff 644
scalar World.node[79].nic.mac1609_4 NumInternalContention 0
scalar World.node[79].nic.mac1609_4 totalBusyTime 0.134133127857
scalar World.node[23].appl.middleware.CaService #cam_sent 583
scalar World.node[23].appl.middleware.ExampleService #full_proofs 1
scalar World.node[23].appl.middleware.ExampleService #half_proofs 3
scalar World.node[23].appl.middleware.ExampleService #failed_proofs 0
scalar World.node[23].appl.middleware.ExampleService #loc_proof_send 31
scalar World.node[23].nic.phy80211p busyTime 0.0031241133603239
scalar World.node[23].nic.mac1609_4 ReceivedUnicastPackets 0
scalar World.node[23].nic.mac1609_4 ReceivedBroadcasts 4486
scalar World.node[23].nic.mac1609_4 SentPackets 614
scalar World.node[23].nic.mac1609_4 SentAcknowledgements 0
scalar World.node[23].nic.mac1609_4 SNIRLostPackets 299
scalar World.node[23].nic.mac1609_4 RXTXLostPackets 104
scalar World.node[23].nic.mac1609_4 TotalLostPackets 403
scalar World.node[23].nic.mac1609_4 DroppedPacketsInMac 0
scalar World.node[23].nic.mac1609_4 TooLittleTime 0
scalar World.node[23].nic.mac1609_4 TimesIntoBackoff 614
scalar World.node[23].nic.mac1609_4 SlotsBackoff 4735
scalar World.node[23].nic.mac1609_4 NumInternalContention 0
scalar World.node[23].nic.mac1609_4 totalBusyTime 0.860614880538
scalar World.node[52].appl.middleware.CaService #cam_sent 461
scalar World.node[52].appl.middleware.ExampleService #full_proofs 0
scalar World.node[52].appl.middleware.ExampleService #half_proofs 2
scalar World.node[52].appl.middleware.ExampleService #failed_proofs 0
scalar World.node[52].appl.middleware.ExampleService #loc_proof_send 22
scalar World.node[52].nic.phy80211p busyTime 0.0041450629370629
scalar World.node[52].nic.mac1609_4 ReceivedUnicastPackets 0
scalar World.node[52].nic.mac1609_4 ReceivedBroadcasts 3365
scalar World.node[52].nic.mac1609_4 SentPackets 483
scalar World.node[52].nic.mac1609_4 SentAcknowledgements 0
scalar World.node[52].nic.mac1609_4 SNIRLostPackets 318
scalar World.node[52].nic.mac1609_4 RXTXLostPackets 84
scalar World.node[52].nic.mac1609_4 TotalLostPackets 402
scalar World.node[52].nic.mac1609_4 DroppedPacketsInMac 0
scalar World.node[52].nic.mac1609_4 TooLittleTime 0
scalar World.node[52].nic.mac1609_4 TimesIntoBackoff 483
scalar World.node[52].nic.mac1609_4 SlotsBackoff 3700
scalar World.node[52].nic.mac1609_4 NumInternalContention 0
scalar World.node[52].nic.mac1609_4 totalBusyTime 0.662923870775
scalar World.node[37].appl.middleware.CaService #cam_sent 564
scalar World.node[37].appl.middleware.ExampleService #full_proofs 0
scalar World.node[37].appl.middleware.ExampleService #half_proofs 3
scalar World.node[37].appl.middleware.ExampleService #failed_proofs 0
scalar World.node[37].appl.middleware.ExampleService #loc_proof_send 24
scalar World.node[37].nic.phy80211p busyTime 0.0027195223880597
scalar World.node[37].nic.mac1609_4 ReceivedUnicastPackets 0
scalar World.node[37].nic.mac1609_4 ReceivedBroadcasts 3125
scalar World.node[37].nic.mac1609_4 SentPackets 588
scalar World.node[37].nic.mac1609_4 SentAcknowledgements 0
scalar World.node[37].nic.mac1609_4 SNIRLostPackets 268
scalar World.node[37].nic.mac1609_4 RXTXLostPackets 53
scalar World.node[37].nic.mac1609_4 TotalLostPackets 321
scalar World.node[37].nic.mac1609_4 DroppedPacketsInMac 0
scalar World.node[37].nic.mac1609_4 TooLittleTime 0
scalar World.node[37].nic.mac1609_4 TimesIntoBackoff 589
scalar World.node[37].nic.mac1609_4 SlotsBackoff 4523
scalar World.node[37].nic.mac1609_4 NumInternalContention 0
scalar World.node[37].nic.mac1609_4 totalBusyTime 0.635492170932
scalar World.node[43].appl.middleware.CaService #cam_sent 490
scalar World.node[43].appl.middleware.ExampleService #full_proofs 0
scalar World.node[43].appl.middleware.ExampleService #half_proofs 3
scalar World.node[43].appl.middleware.ExampleService #failed_proofs 0
scalar World.node[43].appl.middleware.ExampleService #loc_proof_send 29
scalar World.node[43].nic.phy80211p busyTime 0.0029206187845303
scalar World.node[43].nic.mac1609_4 ReceivedUnicastPackets 0
scalar World.node[43].nic.mac1609_4 ReceivedBroadcasts 2910
scalar World.node[43].nic.mac1609_4 SentPackets 519
scalar World.node[43].nic.mac1609_4 SentAcknowledgements 0
scalar World.node[43].nic.mac1609_4 SNIRLostPackets 374
scalar World.node[43].nic.mac1609_4 RXTXLostPackets 117
scalar World.node[43].nic.mac1609_4 TotalLostPackets 491
scalar World.node[43].nic.mac1609_4 DroppedPacketsInMac 0
scalar World.node[43].nic.mac1609_4 TooLittleTime 0
scalar World.node[43].nic.mac1609_4 TimesIntoBackoff 523
scalar World.node[43].nic.mac1609_4 SlotsBackoff 3914
scalar World.node[43].nic.mac1609_4 NumInternalContention 0
scalar World.node[43].nic.mac1609_4 totalBusyTime 0.607952382778
scalar World.node[58].appl.middleware.CaService #cam_sent 354
scalar World.node[58].appl.middleware.ExampleService #full_proofs 1
scalar World.node[58].appl.middleware.ExampleService #half_proofs 1
scalar World.node[58].appl.middleware.ExampleService #failed_proofs 0
scalar World.node[58].appl.middleware.ExampleService #loc_proof_send 14
scalar World.node[58].nic.phy80211p busyTime 0.0029838632478632
scalar World.node[58].nic.mac1609_4 ReceivedUnicastPackets 0
scalar World.node[58].nic.mac1609_4 ReceivedBroadcasts 1979
scalar World.node[58].nic.mac1609_4 SentPackets 368
scalar World.node[58].nic.mac1609_4 SentAcknowledgements 0
scalar World.node[58].nic.mac1609_4 SNIRLostPackets 188
scalar World.node[58].nic.mac1609_4 RXTXLostPackets 53
scalar World.node[58].nic.mac1609_4 TotalLostPackets 241
scalar World.node[58].nic.mac1609_4 DroppedPacketsInMac 0
scalar World.node[58].nic.mac1609_4 TooLittleTime 0
scalar World.node[58].nic.mac1609_4 TimesIntoBackoff 369
scalar World.node[58].nic.mac1609_4 SlotsBackoff 3005
scalar World.node[58].nic.mac1609_4 NumInternalContention 0
scalar World.node[58].nic.mac1609_4 totalBusyTime 0.403024899912
scalar World.node[17].appl.middleware.CaService #cam_sent 773
scalar World.node[17].appl.middleware.ExampleService #full_proofs 1
scalar World.node[17].appl.middleware.ExampleService #half_proofs 3
scalar World.node[17].appl.middleware.ExampleService #failed_proofs 0
scalar World.node[17].appl.middleware.ExampleService #loc_proof_send 48
scalar World.node[17].nic.phy80211p busyTime 0.0038088918918917
scalar World.node[17].nic.mac1609_4 ReceivedUnicastPackets 0
scalar World.node[17].nic.mac1609_4 ReceivedBroadcasts 6545
scalar World.node[17].nic.mac1609_4 SentPackets 821
scalar World.node[17].nic.mac1609_4 SentAcknowledgements 0
scalar World.node[17].nic.mac1609_4 SNIRLostPackets 456
scalar World.node[17].nic.mac1609_4 RXTXLostPackets 194
scalar World.node[17].nic.mac1609_4 TotalLostPackets 650
scalar World.node[17].nic.mac1609_4 DroppedPacketsInMac 0
scalar World.node[17].nic.mac1609_4 TooLittleTime 0
scalar World.node[17].nic.mac1609_4 TimesIntoBackoff 824
scalar World.node[17].nic.mac1609_4 SlotsBackoff 6176
scalar World.node[17].nic.mac1609_4 NumInternalContention 0
scalar World.node[17].nic.mac1609_4 totalBusyTime 1.243382858054
scalar World.node[59].appl.middleware.CaService #cam_sent 342
scalar World.node[59].appl.middleware.ExampleService #full_proofs 0
scalar World.node[59].appl.middleware.ExampleService #half_proofs 2
scalar World.node[59].appl.middleware.ExampleService #failed_proofs 0
scalar World.node[59].appl.middleware.ExampleService #loc_proof_send 17
scalar World.node[59].nic.phy80211p busyTime 0.0033949217391304
scalar World.node[59].nic.mac1609_4 ReceivedUnicastPackets 0
scalar World.node[59].nic.mac1609_4 ReceivedBroadcasts 2239
scalar World.node[59].nic.mac1609_4 SentPackets 359
scalar World.node[59].nic.mac1609_4 SentAcknowledgements 0
scalar World.node[59].nic.mac1609_4 SNIRLostPackets 193
scalar World.node[59].nic.mac1609_4 RXTXLostPackets 71
scalar World.node[59].nic.mac1609_4 TotalLostPackets 264
scalar World.node[59].nic.mac1609_4 DroppedPacketsInMac 0
scalar World.node[59].nic.mac1609_4 TooLittleTime 0
scalar World.node[59].nic.mac1609_4 TimesIntoBackoff 361
scalar World.node[59].nic.mac1609_4 SlotsBackoff 2735
scalar World.node[59].nic.mac1609_4 NumInternalContention 0
scalar World.node[59].nic.mac1609_4 totalBusyTime 0.442983655411
scalar World.node[47].appl.middleware.CaService #cam_sent 462
scalar World.node[47].appl.middleware.ExampleService #full_proofs 0
scalar World.node[47].appl.middleware.ExampleService #half_proofs 3
scalar World.node[47].appl.middleware.ExampleService #failed_proofs 0
scalar World.node[47].appl.middleware.ExampleService #loc_proof_send 23
scalar World.node[47].nic.phy80211p busyTime 0.0034953988439306
scalar World.node[47].nic.mac1609_4 ReceivedUnicastPackets 0
scalar World.node[47].nic.mac1609_4 ReceivedBroadcasts 3459
scalar World.node[47].nic.mac1609_4 SentPackets 485
scalar World.node[47].nic.mac1609_4 SentAcknowledgements 0
scalar World.node[47].nic.mac1609_4 SNIRLostPackets 299
scalar World.node[47].nic.mac1609_4 RXTXLostPackets 76
scalar World.node[47].nic.mac1609_4 TotalLostPackets 375
scalar World.node[47].nic.mac1609_4 DroppedPacketsInMac 0
scalar World.node[47].nic.mac1609_4 TooLittleTime 0
scalar World.node[47].nic.mac1609_4 TimesIntoBackoff 505
scalar World.node[47].nic.mac1609_4 SlotsBackoff 3732
scalar World.node[47].nic.mac1609_4 NumInternalContention 0
scalar World.node[47].nic.mac1609_4 totalBusyTime 0.676029426232
scalar World.node[49].appl.middleware.CaService #cam_sent 506
scalar World.node[49].appl.middleware.ExampleService #full_proofs 0
scalar World.node[49].appl.middleware.ExampleService #half_proofs 3
scalar World.node[49].appl.middleware.ExampleService #failed_proofs 0
scalar World.node[49].appl.middleware.ExampleService #loc_proof_send 27
scalar World.node[49].nic.phy80211p busyTime 0.0037982958579881
scalar World.node[49].nic.mac1609_4 ReceivedUnicastPackets 0
scalar World.node[49].nic.mac1609_4 ReceivedBroadcasts 3668
scalar World.node[49].nic.mac1609_4 SentPackets 533
scalar World.node[49].nic.mac1609_4 SentAcknowledgements 0
scalar World.node[49].nic.mac1609_4 SNIRLostPackets 318
scalar World.node[49].nic.mac1609_4 RXTXLostPackets 118
scalar World.node[49].nic.mac1609_4 TotalLostPackets 436
scalar World.node[49].nic.mac1609_4 DroppedPacketsInMac 0
scalar World.node[49].nic.mac1609_4 TooLittleTime 0
scalar World.node[49].nic.mac1609_4 TimesIntoBackoff 534
scalar World.node[49].nic.mac1609_4 SlotsBackoff 4112
scalar World.node[49].nic.mac1609_4 NumInternalContention 0
scalar World.node[49].nic.mac1609_4 totalBusyTime 0.719894846469
scalar World.node[55].appl.middleware.CaService #cam_sent 408
scalar World.node[55].appl.middleware.ExampleService #full_proofs 0
scalar World.node[55].appl.middleware.ExampleService #half_proofs 2
scalar World.node[55].appl.middleware.ExampleService #failed_proofs 0
scalar World.node[55].appl.middleware.ExampleService #loc_proof_send 26
scalar World.node[55].nic.phy80211p busyTime 0.0038520533333333
scalar World.node[55].nic.mac1609_4 ReceivedUnicastPackets 0
scalar World.node[55].nic.mac1609_4 ReceivedBroadcasts 3336
scalar World.node[55].nic.mac1609_4 SentPackets 434
scalar World.node[55].nic.mac1609_4 SentAcknowledgements 0
scalar World.node[55].nic.mac1609_4 SNIRLostPackets 259
scalar World.node[55].nic.mac1609_4 RXTXLostPackets 96
scalar World.node[55].nic.mac1609_4 TotalLostPackets 355
scalar World.node[55].nic.mac1609_4 DroppedPacketsInMac 0
scalar World.node[55].nic.mac1609_4 TooLittleTime 0
scalar World.node[55].nic.mac1609_4 TimesIntoBackoff 438
scalar World.node[55].nic.mac1609_4 SlotsBackoff 3233
scalar World.node[55].nic.mac1609_4 NumInternalContention 0
scalar World.node[55].nic.mac1609_4 totalBusyTime 0.636530773494
scalar World.node[41].appl.middleware.CaService #cam_sent 591
scalar World.node[41].appl.middleware.ExampleService #full_proofs 0
scalar World.node[41].appl.middleware.ExampleService #half_proofs 2
scalar World.node[41].appl.middleware.ExampleService #failed_proofs 1
scalar World.node[41].appl.middleware.ExampleService #loc_proof_send 29
scalar World.node[41].nic.phy80211p busyTime 0.0028898779342723
scalar World.node[41].nic.mac1609_4 ReceivedUnicastPackets 0
scalar World.node[41].nic.mac1609_4 ReceivedBroadcasts 3377
scalar World.node[41].nic.mac1609_4 SentPackets 620
scalar World.node[41].nic.mac1609_4 SentAcknowledgements 0
scalar World.node[41].nic.mac1609_4 SNIRLostPackets 443
scalar World.node[41].nic.mac1609_4 RXTXLostPackets 116
scalar World.node[41].nic.mac1609_4 TotalLostPackets 559
scalar World.node[41].nic.mac1609_4 DroppedPacketsInMac 0
scalar World.node[41].nic.mac1609_4 TooLittleTime 0
scalar World.node[41].nic.mac1609_4 TimesIntoBackoff 626
scalar World.node[41].nic.mac1609_4 SlotsBackoff 4680
scalar World.node[41].nic.mac1609_4 NumInternalContention 0
scalar World.node[41].nic.mac1609_4 totalBusyTime 0.709509360707
scalar World.node[34].appl.middleware.CaService #cam_sent 685
scalar World.node[34].appl.middleware.ExampleService #full_proofs 0
scalar World.node[34].appl.middleware.ExampleService #half_proofs 4
scalar World.node[34].appl.middleware.ExampleService #failed_proofs 0
scalar World.node[34].appl.middleware.ExampleService #loc_proof_send 39
scalar World.node[34].nic.phy80211p busyTime 0.0044448387096772
scalar World.node[34].nic.mac1609_4 ReceivedUnicastPackets 0
scalar World.node[34].nic.mac1609_4 ReceivedBroadcasts 6334
scalar World.node[34].nic.mac1609_4 SentPackets 724
scalar World.node[34].nic.mac1609_4 SentAcknowledgements 0
scalar World.node[34].nic.mac1609_4 SNIRLostPackets 516
scalar World.node[34].nic.mac1609_4 RXTXLostPackets 101
scalar World.node[34].nic.mac1609_4 TotalLostPackets 617
scalar World.node[34].nic.mac1609_4 DroppedPacketsInMac 0
scalar World.node[34].nic.mac1609_4 TooLittleTime 0
scalar World.node[34].nic.mac1609_4 TimesIntoBackoff 727
scalar World.node[34].nic.mac1609_4 SlotsBackoff 5415
scalar World.node[34].nic.mac1609_4 NumInternalContention 0
scalar World.node[34].nic.mac1609_4 totalBusyTime 1.203013841898
scalar World.node[60].appl.middleware.CaService #cam_sent 337
scalar World.node[60].appl.middleware.ExampleService #full_proofs 0
scalar World.node[60].appl.middleware.ExampleService #half_proofs 1
scalar World.node[60].appl.middleware.ExampleService #failed_proofs 1
scalar World.node[60].appl.middleware.ExampleService #loc_proof_send 18
scalar World.node[60].nic.phy80211p busyTime 0.0040657971014492
scalar World.node[60].nic.mac1609_4 ReceivedUnicastPackets 0
scalar World.node[60].nic.mac1609_4 ReceivedBroadcasts 3099
scalar World.node[60].nic.mac1609_4 SentPackets 355
scalar World.node[60].nic.mac1609_4 SentAcknowledgements 0
scalar World.node[60].nic.mac1609_4 SNIRLostPackets 387
scalar World.node[60].nic.mac1609_4 RXTXLostPackets 66
scalar World.node[60].nic.mac1609_4 TotalLostPackets 453
scalar World.node[60].nic.mac1609_4 DroppedPacketsInMac 0
scalar World.node[60].nic.mac1609_4 TooLittleTime 0
scalar World.node[60].nic.mac1609_4 TimesIntoBackoff 357
scalar World.node[60].nic.mac1609_4 SlotsBackoff 2848
scalar World.node[60].nic.mac1609_4 NumInternalContention 0
scalar World.node[60].nic.mac1609_4 totalBusyTime 0.611307336494
scalar World.node[42].appl.middleware.CaService #cam_sent 413
scalar World.node[42].appl.middleware.ExampleService #full_proofs 0
scalar World.node[42].appl.middleware.ExampleService #half_proofs 3
scalar World.node[42].appl.middleware.ExampleService #failed_proofs 0
scalar World.node[42].appl.middleware.ExampleService #loc_proof_send 33
scalar World.node[42].nic.phy80211p busyTime 0.0035346422018348
scalar World.node[42].nic.mac1609_4 ReceivedUnicastPackets 0
scalar World.node[42].nic.mac1609_4 ReceivedBroadcasts 4276
scalar World.node[42].nic.mac1609_4 SentPackets 446
scalar World.node[42].nic.mac1609_4 SentAcknowledgements 0
scalar World.node[42].nic.mac1609_4 SNIRLostPackets 503
scalar World.node[42].nic.mac1609_4 RXTXLostPackets 133
scalar World.node[42].nic.mac1609_4 TotalLostPackets 636
scalar World.node[42].nic.mac1609_4 DroppedPacketsInMac 0
scalar World.node[42].nic.mac1609_4 TooLittleTime 0
scalar World.node[42].nic.mac1609_4 TimesIntoBackoff 448
scalar World.node[42].nic.mac1609_4 SlotsBackoff 3424
scalar World.node[42].nic.mac1609_4 NumInternalContention 0
scalar World.node[42].nic.mac1609_4 totalBusyTime 0.831871798617
scalar World.node[72].appl.middleware.CaService #cam_sent 284
scalar World.node[72].appl.middleware.ExampleService #full_proofs 0
scalar World.node[72].appl.middleware.ExampleService #half_proofs 2
scalar World.node[72].appl.middleware.ExampleService #failed_proofs 0
scalar World.node[72].appl.middleware.ExampleService #loc_proof_send 23
scalar World.node[72].nic.phy80211p busyTime 0.0045413076923076
scalar World.node[72].nic.mac1609_4 ReceivedUnicastPackets 0
scalar World.node[72].nic.mac1609_4 ReceivedBroadcasts 2695
scalar World.node[72].nic.mac1609_4 SentPackets 307
scalar World.node[72].nic.mac1609_4 SentAcknowledgements 0
scalar World.node[72].nic.mac1609_4 SNIRLostPackets 264
scalar World.node[72].nic.mac1609_4 RXTXLostPackets 49
scalar World.node[72].nic.mac1609_4 TotalLostPackets 313
scalar World.node[72].nic.mac1609_4 DroppedPacketsInMac 0
scalar World.node[72].nic.mac1609_4 TooLittleTime 0
scalar World.node[72].nic.mac1609_4 TimesIntoBackoff 309
scalar World.node[72].nic.mac1609_4 SlotsBackoff 2304
scalar World.node[72].nic.mac1609_4 NumInternalContention 0
scalar World.node[72].nic.mac1609_4 totalBusyTime 0.506995970922
scalar World.node[29].appl.middleware.CaService #cam_sent 752
scalar World.node[29].appl.middleware.ExampleService #full_proofs 0
scalar World.node[29].appl.middleware.ExampleService #half_proofs 4
scalar World.node[29].appl.middleware.ExampleService #failed_proofs 0
scalar World.node[29].appl.middleware.ExampleService #loc_proof_send 37
scalar World.node[29].nic.phy80211p busyTime 0.0032750394265232
scalar World.node[29].nic.mac1609_4 ReceivedUnicastPackets 0
scalar World.node[29].nic.mac1609_4 ReceivedBroadcasts 5234
scalar World.node[29].nic.mac1609_4 SentPackets 789
scalar World.node[29].nic.mac1609_4 SentAcknowledgements 0
scalar World.node[29].nic.mac1609_4 SNIRLostPackets 430
scalar World.node[29].nic.mac1609_4 RXTXLostPackets 155
scalar World.node[29].nic.mac1609_4 TotalLostPackets 585
scalar World.node[29].nic.mac1609_4 DroppedPacketsInMac 0
scalar World.node[29].nic.mac1609_4 TooLittleTime 0
scalar World.node[29].nic.mac1609_4 TimesIntoBackoff 790
scalar World.node[29].nic.mac1609_4 SlotsBackoff 5768
scalar World.node[29].nic.mac1609_4 NumInternalContention 0
scalar World.node[29].nic.mac1609_4 totalBusyTime 1.033846309757
scalar World.node[46].appl.middleware.CaService #cam_sent 548
scalar World.node[46].appl.middleware.ExampleService #full_proofs 0
scalar World.node[46].appl.middleware.ExampleService #half_proofs 4
scalar World.node[46].appl.middleware.ExampleService #failed_proofs 0
scalar World.node[46].appl.middleware.ExampleService #loc_proof_send 46
scalar World.node[46].nic.phy80211p busyTime 0.0046850941704035
scalar World.node[46].nic.mac1609_4 ReceivedUnicastPackets 0
scalar World.node[46].nic.mac1609_4 ReceivedBroadcasts 5988
scalar World.node[46].nic.mac1609_4 SentPackets 594
scalar World.node[46].nic.mac1609_4 SentAcknowledgements 0
scalar World.node[46].nic.mac1609_4 SNIRLostPackets 505
scalar World.node[46].nic.mac1609_4 RXTXLostPackets 156
scalar World.node[46].nic.mac1609_4 TotalLostPackets 661
scalar World.node[46].nic.mac1609_4 DroppedPacketsInMac 0
scalar World.node[46].nic.mac1609_4 TooLittleTime 0
scalar World.node[46].nic.mac1609_4 TimesIntoBackoff 598
scalar World.node[46].nic.mac1609_4 SlotsBackoff 4296
scalar World.node[46].nic.mac1609_4 NumInternalContention 0
scalar World.node[46].nic.mac1609_4 totalBusyTime 1.127524111728
scalar World.node[51].appl.middleware.CaService #cam_sent 552
scalar World.node[51].appl.middleware.ExampleService #full_proofs 0
scalar World.node[51].appl.middleware.ExampleService #half_proofs 4
scalar World.node[51].appl.middleware.ExampleService #failed_proofs 0
scalar World.node[51].appl.middleware.ExampleService #loc_proof_send 46
scalar World.node[51].nic.phy80211p busyTime 0.0046673786407766
scalar World.node[51].nic.mac1609_4 ReceivedUnicastPackets 0
scalar World.node[51].nic.mac1609_4 ReceivedBroadcasts 5476
scalar World.node[51].nic.mac1609_4 SentPackets 598
scalar World.node[51].nic.mac1609_4 SentAcknowledgements 0
scalar World.node[51].nic.mac1609_4 SNIRLostPackets 515
scalar World.node[51].nic.mac1609_4 RXTXLostPackets 164
scalar World.node[51].nic.mac1609_4 TotalLostPackets 679
scalar World.node[51].nic.mac1609_4 DroppedPacketsInMac 0
scalar World.node[51].nic.mac1609_4 TooLittleTime 0
scalar World.node[51].nic.mac1609_4 TimesIntoBackoff 600
scalar World.node[51].nic.mac1609_4 SlotsBackoff 4483
scalar World.node[51].nic.mac1609_4 NumInternalContention 0
scalar World.node[51].nic.mac1609_4 totalBusyTime 1.042144238514
scalar World.node[81].appl.middleware.CaService #cam_sent 229
scalar World.node[81].appl.middleware.ExampleService #full_proofs 0
scalar World.node[81].appl.middleware.ExampleService #half_proofs 0
scalar World.node[81].appl.middleware.ExampleService #failed_proofs 1
scalar World.node[81].appl.middleware.ExampleService #loc_proof_send 14
scalar World.node[81].nic.phy80211p busyTime 0.0039125393258426
scalar World.node[81].nic.mac1609_4 ReceivedUnicastPackets 0
scalar World.node[81].nic.mac1609_4 ReceivedBroadcasts 2040
scalar World.node[81].nic.mac1609_4 SentPackets 243
scalar World.node[81].nic.mac1609_4 SentAcknowledgements 0
scalar World.node[81].nic.mac1609_4 SNIRLostPackets 125
scalar World.node[81].nic.mac1609_4 RXTXLostPackets 35
scalar World.node[81].nic.mac1609_4 TotalLostPackets 160
scalar World.node[81].nic.mac1609_4 DroppedPacketsInMac 0
scalar World.node[81].nic.mac1609_4 TooLittleTime 0
scalar World.node[81].nic.mac1609_4 TimesIntoBackoff 245
scalar World.node[81].nic.mac1609_4 SlotsBackoff 1930
scalar World.node[81].nic.mac1609_4 NumInternalContention 0
scalar World.node[81].nic.mac1609_4 totalBusyTime 0.383411409588
scalar World.node[78].appl.middleware.CaService #cam_sent 307
scalar World.node[78].appl.middleware.ExampleService #full_proofs 1
scalar World.node[78].appl.middleware.ExampleService #half_proofs 1
scalar World.node[78].appl.middleware.ExampleService #failed_proofs 0
scalar World.node[78].appl.middleware.ExampleService #loc_proof_send 22
scalar World.node[78].nic.phy80211p busyTime 0.0045881834862385
scalar World.node[78].nic.mac1609_4 ReceivedUnicastPackets 0
scalar World.node[78].nic.mac1609_4 ReceivedBroadcasts 2803
scalar World.node[78].nic.mac1609_4 SentPackets 329
scalar World.node[78].nic.mac1609_4 SentAcknowledgements 0
scalar World.node[78].nic.mac1609_4 SNIRLostPackets 317
scalar World.node[78].nic.mac1609_4 RXTXLostPackets 102
scalar World.node[78].nic.mac1609_4 TotalLostPackets 419
scalar World.node[78].nic.mac1609_4 DroppedPacketsInMac 0
scalar World.node[78].nic.mac1609_4 TooLittleTime 0
scalar World.node[78].nic.mac1609_4 TimesIntoBackoff 330
scalar World.node[78].nic.mac1609_4 SlotsBackoff 2382
scalar World.node[78].nic.mac1609_4 NumInternalContention 0
scalar World.node[78].nic.mac1609_4 totalBusyTime 0.545297844884
scalar World.node[44].appl.middleware.CaService #cam_sent 630
scalar World.node[44].appl.middleware.ExampleService #full_proofs 0
scalar World.node[44].appl.middleware.ExampleService #half_proofs 4
scalar World.node[44].appl.middleware.ExampleService #failed_proofs 0
scalar World.node[44].appl.middleware.ExampleService #loc_proof_send 49
scalar World.node[44].nic.phy80211p busyTime 0.0047418210116729
scalar World.node[44].nic.mac1609_4 ReceivedUnicastPackets 0
scalar World.node[44].nic.mac1609_4 ReceivedBroadcasts 7133
scalar World.node[44].nic.mac1609_4 SentPackets 679
scalar World.node[44].nic.mac1609_4 SentAcknowledgements 0
scalar World.node[44].nic.mac1609_4 SNIRLostPackets 427
scalar World.node[44].nic.mac1609_4 RXTXLostPackets 218
scalar World.node[44].nic.mac1609_4 TotalLostPackets 645
scalar World.node[44].nic.mac1609_4 DroppedPacketsInMac 0
scalar World.node[44].nic.mac1609_4 TooLittleTime 0
scalar World.node[44].nic.mac1609_4 TimesIntoBackoff 686
scalar World.node[44].nic.mac1609_4 SlotsBackoff 5190
scalar World.node[44].nic.mac1609_4 NumInternalContention 0
scalar World.node[44].nic.mac1609_4 totalBusyTime 1.313729816465
scalar World.node[65].appl.middleware.CaService #cam_sent 466
scalar World.node[65].appl.middleware.ExampleService #full_proofs 0
scalar World.node[65].appl.middleware.ExampleService #half_proofs 2
scalar World.node[65].appl.middleware.ExampleService #failed_proofs 0
scalar World.node[65].appl.middleware.ExampleService #loc_proof_send 26
scalar World.node[65].nic.phy80211p busyTime 0.0050519090909091
scalar World.node[65].nic.mac1609_4 ReceivedUnicastPackets 0
scalar World.node[65].nic.mac1609_4 ReceivedBroadcasts 4787
scalar World.node[65].nic.mac1609_4 SentPackets 492
scalar World.node[65].nic.mac1609_4 SentAcknowledgements 0
scalar World.node[65].nic.mac1609_4 SNIRLostPackets 762
scalar World.node[65].nic.mac1609_4 RXTXLostPackets 42
scalar World.node[65].nic.mac1609_4 TotalLostPackets 804
scalar World.node[65].nic.mac1609_4 DroppedPacketsInMac 0
scalar World.node[65].nic.mac1609_4 TooLittleTime 0
scalar World.node[65].nic.mac1609_4 TimesIntoBackoff 493
scalar World.node[65].nic.mac1609_4 SlotsBackoff 3789
scalar World.node[65].nic.mac1609_4 NumInternalContention 0
scalar World.node[65].nic.mac1609_4 totalBusyTime 0.953260860147
scalar World.node[66].appl.middleware.CaService #cam_sent 516
scalar World.node[66].appl.middleware.ExampleService #full_proofs 0
scalar World.node[66].appl.middleware.ExampleService #half_proofs 3
scalar World.node[66].appl.middleware.ExampleService #failed_proofs 0
scalar World.node[66].appl.middleware.ExampleService #loc_proof_send 37
scalar World.node[66].nic.phy80211p busyTime 0.0050285652173913
scalar World.node[66].nic.mac1609_4 ReceivedUnicastPackets 0
scalar World.node[66].nic.mac1609_4 ReceivedBroadcasts 5097
scalar World.node[66].nic.mac1609_4 SentPackets 553
scalar World.node[66].nic.mac1609_4 SentAcknowledgements 0
scalar World.node[66].nic.mac1609_4 SNIRLostPackets 675
scalar World.node[66].nic.mac1609_4 RXTXLostPackets 135
scalar World.node[66].nic.mac1609_4 TotalLostPackets 810
scalar World.node[66].nic.mac1609_4 DroppedPacketsInMac 0
scalar World.node[66].nic.mac1609_4 TooLittleTime 0
scalar World.node[66].nic.mac1609_4 TimesIntoBackoff 558
scalar World.node[66].nic.mac1609_4 SlotsBackoff 4281
scalar World.node[66].nic.mac1609_4 NumInternalContention 0
scalar World.node[66].nic.mac1609_4 totalBusyTime 0.997410160454
scalar World.node[61].appl.middleware.CaService #cam_sent 509
scalar World.node[61].appl.middleware.ExampleService #full_proofs 0
scalar World.node[61].appl.middleware.ExampleService #half_proofs 2
scalar World.node[61].appl.middleware.ExampleService #failed_proofs 1
scalar World.node[61].appl.middleware.ExampleService #loc_proof_send 24
scalar World.node[61].nic.phy80211p busyTime 0.0033897931034482
scalar World.node[61].nic.mac1609_4 ReceivedUnicastPackets 0
scalar World.node[61].nic.mac1609_4 ReceivedBroadcasts 3922
scalar World.node[61].nic.mac1609_4 SentPackets 533
scalar World.node[61].nic.mac1609_4 SentAcknowledgements 0
scalar World.node[61].nic.mac1609_4 SNIRLostPackets 358
scalar World.node[61].nic.mac1609_4 RXTXLostPackets 90
scalar World.node[61].nic.mac1609_4 TotalLostPackets 448
scalar World.node[61].nic.mac1609_4 DroppedPacketsInMac 0
scalar World.node[61].nic.mac1609_4 TooLittleTime 0
scalar World.node[61].nic.mac1609_4 TimesIntoBackoff 535
scalar World.node[61].nic.mac1609_4 SlotsBackoff 3992
scalar World.node[61].nic.mac1609_4 NumInternalContention 0
scalar World.node[61].nic.mac1609_4 totalBusyTime 0.763694706314
scalar World.node[74].appl.middleware.CaService #cam_sent 351
scalar World.node[74].appl.middleware.ExampleService #full_proofs 0
scalar World.node[74].appl.middleware.ExampleService #half_proofs 1
scalar World.node[74].appl.middleware.ExampleService #failed_proofs 1
scalar World.node[74].appl.middleware.ExampleService #loc_proof_send 30
scalar World.node[74].nic.phy80211p busyTime 0.005267865771812
scalar World.node[74].nic.mac1609_4 ReceivedUnicastPackets 0
scalar World.node[74].nic.mac1609_4 ReceivedBroadcasts 4482
scalar World.node[74].nic.mac1609_4 SentPackets 381
scalar World.node[74].nic.mac1609_4 SentAcknowledgements 0
scalar World.node[74].nic.mac1609_4 SNIRLostPackets 423
[...]
scalar World.node[918].nic.mac1609_4 totalBusyTime 0.865732116248
scalar World.node[886].appl.middleware.CaService #cam_sent 639
scalar World.node[886].appl.middleware.ExampleService #full_proofs 0
scalar World.node[886].appl.middleware.ExampleService #half_proofs 5
scalar World.node[886].appl.middleware.ExampleService #failed_proofs 1
scalar World.node[886].appl.middleware.ExampleService #loc_proof_send 114
scalar World.node[886].nic.phy80211p busyTime 0.0065443989501306
scalar World.node[886].nic.mac1609_4 ReceivedUnicastPackets 0
scalar World.node[886].nic.mac1609_4 ReceivedBroadcasts 14475
scalar World.node[886].nic.mac1609_4 SentPackets 753
scalar World.node[886].nic.mac1609_4 SentAcknowledgements 0
scalar World.node[886].nic.mac1609_4 SNIRLostPackets 1064
scalar World.node[886].nic.mac1609_4 RXTXLostPackets 972
scalar World.node[886].nic.mac1609_4 TotalLostPackets 2036
scalar World.node[886].nic.mac1609_4 DroppedPacketsInMac 0
scalar World.node[886].nic.mac1609_4 TooLittleTime 0
scalar World.node[886].nic.mac1609_4 TimesIntoBackoff 759
scalar World.node[886].nic.mac1609_4 SlotsBackoff 5643
scalar World.node[886].nic.mac1609_4 NumInternalContention 0
scalar World.node[886].nic.mac1609_4 totalBusyTime 2.546833326287
scalar World.node[921].appl.middleware.CaService #cam_sent 648
scalar World.node[921].appl.middleware.ExampleService #full_proofs 0
scalar World.node[921].appl.middleware.ExampleService #half_proofs 3
scalar World.node[921].appl.middleware.ExampleService #failed_proofs 1
scalar World.node[921].appl.middleware.ExampleService #loc_proof_send 34
scalar World.node[921].nic.phy80211p busyTime 0.0033091265306121
scalar World.node[921].nic.mac1609_4 ReceivedUnicastPackets 0
scalar World.node[921].nic.mac1609_4 ReceivedBroadcasts 3768
scalar World.node[921].nic.mac1609_4 SentPackets 682
scalar World.node[921].nic.mac1609_4 SentAcknowledgements 0
scalar World.node[921].nic.mac1609_4 SNIRLostPackets 1296
scalar World.node[921].nic.mac1609_4 RXTXLostPackets 109
scalar World.node[921].nic.mac1609_4 TotalLostPackets 1405
scalar World.node[921].nic.mac1609_4 DroppedPacketsInMac 0
scalar World.node[921].nic.mac1609_4 TooLittleTime 0
scalar World.node[921].nic.mac1609_4 TimesIntoBackoff 689
scalar World.node[921].nic.mac1609_4 SlotsBackoff 5341
scalar World.node[921].nic.mac1609_4 NumInternalContention 0
scalar World.node[921].nic.mac1609_4 totalBusyTime 0.901842158733
scalar World.node[916].appl.middleware.CaService #cam_sent 640
scalar World.node[916].appl.middleware.ExampleService #full_proofs 0
scalar World.node[916].appl.middleware.ExampleService #half_proofs 3
scalar World.node[916].appl.middleware.ExampleService #failed_proofs 0
scalar World.node[916].appl.middleware.ExampleService #loc_proof_send 30
scalar World.node[916].nic.phy80211p busyTime 0.0031393605947955
scalar World.node[916].nic.mac1609_4 ReceivedUnicastPackets 0
scalar World.node[916].nic.mac1609_4 ReceivedBroadcasts 4768
scalar World.node[916].nic.mac1609_4 SentPackets 670
scalar World.node[916].nic.mac1609_4 SentAcknowledgements 0
scalar World.node[916].nic.mac1609_4 SNIRLostPackets 503
scalar World.node[916].nic.mac1609_4 RXTXLostPackets 120
scalar World.node[916].nic.mac1609_4 TotalLostPackets 623
scalar World.node[916].nic.mac1609_4 DroppedPacketsInMac 0
scalar World.node[916].nic.mac1609_4 TooLittleTime 0
scalar World.node[916].nic.mac1609_4 TimesIntoBackoff 671
scalar World.node[916].nic.mac1609_4 SlotsBackoff 5107
scalar World.node[916].nic.mac1609_4 NumInternalContention 0
scalar World.node[916].nic.mac1609_4 totalBusyTime 0.933368049756
scalar World.node[940].appl.middleware.CaService #cam_sent 546
scalar World.node[940].appl.middleware.ExampleService #full_proofs 1
scalar World.node[940].appl.middleware.ExampleService #half_proofs 1
scalar World.node[940].appl.middleware.ExampleService #failed_proofs 0
scalar World.node[940].appl.middleware.ExampleService #loc_proof_send 22
scalar World.node[940].nic.phy80211p busyTime 0.002597829787234
scalar World.node[940].nic.mac1609_4 ReceivedUnicastPackets 0
scalar World.node[940].nic.mac1609_4 ReceivedBroadcasts 2845
scalar World.node[940].nic.mac1609_4 SentPackets 568
scalar World.node[940].nic.mac1609_4 SentAcknowledgements 0
scalar World.node[940].nic.mac1609_4 SNIRLostPackets 174
scalar World.node[940].nic.mac1609_4 RXTXLostPackets 147
scalar World.node[940].nic.mac1609_4 TotalLostPackets 321
scalar World.node[940].nic.mac1609_4 DroppedPacketsInMac 0
scalar World.node[940].nic.mac1609_4 TooLittleTime 0
scalar World.node[940].nic.mac1609_4 TimesIntoBackoff 572
scalar World.node[940].nic.mac1609_4 SlotsBackoff 4254
scalar World.node[940].nic.mac1609_4 NumInternalContention 0
scalar World.node[940].nic.mac1609_4 totalBusyTime 0.575360297633
scalar World.node[939].appl.middleware.CaService #cam_sent 483
scalar World.node[939].appl.middleware.ExampleService #full_proofs 1
scalar World.node[939].appl.middleware.ExampleService #half_proofs 2
scalar World.node[939].appl.middleware.ExampleService #failed_proofs 0
scalar World.node[939].appl.middleware.ExampleService #loc_proof_send 10
scalar World.node[939].nic.phy80211p busyTime 0.0019884766839378
scalar World.node[939].nic.mac1609_4 ReceivedUnicastPackets 0
scalar World.node[939].nic.mac1609_4 ReceivedBroadcasts 1841
scalar World.node[939].nic.mac1609_4 SentPackets 493
scalar World.node[939].nic.mac1609_4 SentAcknowledgements 0
scalar World.node[939].nic.mac1609_4 SNIRLostPackets 540
scalar World.node[939].nic.mac1609_4 RXTXLostPackets 16
scalar World.node[939].nic.mac1609_4 TotalLostPackets 556
scalar World.node[939].nic.mac1609_4 DroppedPacketsInMac 0
scalar World.node[939].nic.mac1609_4 TooLittleTime 0
scalar World.node[939].nic.mac1609_4 TimesIntoBackoff 493
scalar World.node[939].nic.mac1609_4 SlotsBackoff 3769
scalar World.node[939].nic.mac1609_4 NumInternalContention 0
scalar World.node[939].nic.mac1609_4 totalBusyTime 0.459357129655
scalar World.node[888].appl.middleware.CaService #cam_sent 955
scalar World.node[888].appl.middleware.ExampleService #full_proofs 0
scalar World.node[888].appl.middleware.ExampleService #half_proofs 6
scalar World.node[888].appl.middleware.ExampleService #failed_proofs 0
scalar World.node[888].appl.middleware.ExampleService #loc_proof_send 87
scalar World.node[888].nic.phy80211p busyTime 0.0046633399999993
scalar World.node[888].nic.mac1609_4 ReceivedUnicastPackets 0
scalar World.node[888].nic.mac1609_4 ReceivedBroadcasts 10179
scalar World.node[888].nic.mac1609_4 SentPackets 1042
scalar World.node[888].nic.mac1609_4 SentAcknowledgements 0
scalar World.node[888].nic.mac1609_4 SNIRLostPackets 1471
scalar World.node[888].nic.mac1609_4 RXTXLostPackets 728
scalar World.node[888].nic.mac1609_4 TotalLostPackets 2199
scalar World.node[888].nic.mac1609_4 DroppedPacketsInMac 0
scalar World.node[888].nic.mac1609_4 TooLittleTime 0
scalar World.node[888].nic.mac1609_4 TimesIntoBackoff 1061
scalar World.node[888].nic.mac1609_4 SlotsBackoff 7925
scalar World.node[888].nic.mac1609_4 NumInternalContention 0
scalar World.node[888].nic.mac1609_4 totalBusyTime 1.984932066914
scalar World.node[896].appl.middleware.CaService #cam_sent 691
scalar World.node[896].appl.middleware.ExampleService #full_proofs 0
scalar World.node[896].appl.middleware.ExampleService #half_proofs 5
scalar World.node[896].appl.middleware.ExampleService #failed_proofs 1
scalar World.node[896].appl.middleware.ExampleService #loc_proof_send 86
scalar World.node[896].nic.phy80211p busyTime 0.0053175783783775
scalar World.node[896].nic.mac1609_4 ReceivedUnicastPackets 0
scalar World.node[896].nic.mac1609_4 ReceivedBroadcasts 10976
scalar World.node[896].nic.mac1609_4 SentPackets 777
scalar World.node[896].nic.mac1609_4 SentAcknowledgements 0
scalar World.node[896].nic.mac1609_4 SNIRLostPackets 1257
scalar World.node[896].nic.mac1609_4 RXTXLostPackets 608
scalar World.node[896].nic.mac1609_4 TotalLostPackets 1865
scalar World.node[896].nic.mac1609_4 DroppedPacketsInMac 0
scalar World.node[896].nic.mac1609_4 TooLittleTime 0
scalar World.node[896].nic.mac1609_4 TimesIntoBackoff 779
scalar World.node[896].nic.mac1609_4 SlotsBackoff 5936
scalar World.node[896].nic.mac1609_4 NumInternalContention 0
scalar World.node[896].nic.mac1609_4 totalBusyTime 2.038556664439
scalar World.node[911].appl.middleware.CaService #cam_sent 707
scalar World.node[911].appl.middleware.ExampleService #full_proofs 0
scalar World.node[911].appl.middleware.ExampleService #half_proofs 5
scalar World.node[911].appl.middleware.ExampleService #failed_proofs 1
scalar World.node[911].appl.middleware.ExampleService #loc_proof_send 68
scalar World.node[911].nic.phy80211p busyTime 0.004352121951219
scalar World.node[911].nic.mac1609_4 ReceivedUnicastPackets 0
scalar World.node[911].nic.mac1609_4 ReceivedBroadcasts 7880
scalar World.node[911].nic.mac1609_4 SentPackets 775
scalar World.node[911].nic.mac1609_4 SentAcknowledgements 0
scalar World.node[911].nic.mac1609_4 SNIRLostPackets 1023
scalar World.node[911].nic.mac1609_4 RXTXLostPackets 502
scalar World.node[911].nic.mac1609_4 TotalLostPackets 1525
scalar World.node[911].nic.mac1609_4 DroppedPacketsInMac 0
scalar World.node[911].nic.mac1609_4 TooLittleTime 0
scalar World.node[911].nic.mac1609_4 TimesIntoBackoff 780
scalar World.node[911].nic.mac1609_4 SlotsBackoff 5612
scalar World.node[911].nic.mac1609_4 NumInternalContention 0
scalar World.node[911].nic.mac1609_4 totalBusyTime 1.511719854488
scalar World.node[937].appl.middleware.CaService #cam_sent 525
scalar World.node[937].appl.middleware.ExampleService #full_proofs 0
scalar World.node[937].appl.middleware.ExampleService #half_proofs 2
scalar World.node[937].appl.middleware.ExampleService #failed_proofs 1
scalar World.node[937].appl.middleware.ExampleService #loc_proof_send 27
scalar World.node[937].nic.phy80211p busyTime 0.0024230218340611
scalar World.node[937].nic.mac1609_4 ReceivedUnicastPackets 0
scalar World.node[937].nic.mac1609_4 ReceivedBroadcasts 3184
scalar World.node[937].nic.mac1609_4 SentPackets 552
scalar World.node[937].nic.mac1609_4 SentAcknowledgements 0
scalar World.node[937].nic.mac1609_4 SNIRLostPackets 253
scalar World.node[937].nic.mac1609_4 RXTXLostPackets 129
scalar World.node[937].nic.mac1609_4 TotalLostPackets 382
scalar World.node[937].nic.mac1609_4 DroppedPacketsInMac 0
scalar World.node[937].nic.mac1609_4 TooLittleTime 0
scalar World.node[937].nic.mac1609_4 TimesIntoBackoff 558
scalar World.node[937].nic.mac1609_4 SlotsBackoff 4204
scalar World.node[937].nic.mac1609_4 NumInternalContention 0
scalar World.node[937].nic.mac1609_4 totalBusyTime 0.638408426804
scalar World.node[898].appl.middleware.CaService #cam_sent 962
scalar World.node[898].appl.middleware.ExampleService #full_proofs 1
scalar World.node[898].appl.middleware.ExampleService #half_proofs 5
scalar World.node[898].appl.middleware.ExampleService #failed_proofs 0
scalar World.node[898].appl.middleware.ExampleService #loc_proof_send 85
scalar World.node[898].nic.phy80211p busyTime 0.0047028823529404
scalar World.node[898].nic.mac1609_4 ReceivedUnicastPackets 0
scalar World.node[898].nic.mac1609_4 ReceivedBroadcasts 10869
scalar World.node[898].nic.mac1609_4 SentPackets 1047
scalar World.node[898].nic.mac1609_4 SentAcknowledgements 0
scalar World.node[898].nic.mac1609_4 SNIRLostPackets 1129
scalar World.node[898].nic.mac1609_4 RXTXLostPackets 649
scalar World.node[898].nic.mac1609_4 TotalLostPackets 1778
scalar World.node[898].nic.mac1609_4 DroppedPacketsInMac 0
scalar World.node[898].nic.mac1609_4 TooLittleTime 0
scalar World.node[898].nic.mac1609_4 TimesIntoBackoff 1053
scalar World.node[898].nic.mac1609_4 SlotsBackoff 7856
scalar World.node[898].nic.mac1609_4 NumInternalContention 0
scalar World.node[898].nic.mac1609_4 totalBusyTime 2.025559800722
scalar World.node[928].appl.middleware.CaService #cam_sent 744
scalar World.node[928].appl.middleware.ExampleService #full_proofs 0
scalar World.node[928].appl.middleware.ExampleService #half_proofs 2
scalar World.node[928].appl.middleware.ExampleService #failed_proofs 3
scalar World.node[928].appl.middleware.ExampleService #loc_proof_send 55
scalar World.node[928].nic.phy80211p busyTime 0.0028749202453986
scalar World.node[928].nic.mac1609_4 ReceivedUnicastPackets 0
scalar World.node[928].nic.mac1609_4 ReceivedBroadcasts 5337
scalar World.node[928].nic.mac1609_4 SentPackets 799
scalar World.node[928].nic.mac1609_4 SentAcknowledgements 0
scalar World.node[928].nic.mac1609_4 SNIRLostPackets 476
scalar World.node[928].nic.mac1609_4 RXTXLostPackets 415
scalar World.node[928].nic.mac1609_4 TotalLostPackets 891
scalar World.node[928].nic.mac1609_4 DroppedPacketsInMac 0
scalar World.node[928].nic.mac1609_4 TooLittleTime 0
scalar World.node[928].nic.mac1609_4 TimesIntoBackoff 805
scalar World.node[928].nic.mac1609_4 SlotsBackoff 6103
scalar World.node[928].nic.mac1609_4 NumInternalContention 0
scalar World.node[928].nic.mac1609_4 totalBusyTime 1.044740925563
scalar World.node[934].appl.middleware.CaService #cam_sent 586
scalar World.node[934].appl.middleware.ExampleService #full_proofs 0
scalar World.node[934].appl.middleware.ExampleService #half_proofs 4
scalar World.node[934].appl.middleware.ExampleService #failed_proofs 1
scalar World.node[934].appl.middleware.ExampleService #loc_proof_send 57
scalar World.node[934].nic.phy80211p busyTime 0.0034849090909088
scalar World.node[934].nic.mac1609_4 ReceivedUnicastPackets 0
scalar World.node[934].nic.mac1609_4 ReceivedBroadcasts 5896
scalar World.node[934].nic.mac1609_4 SentPackets 643
scalar World.node[934].nic.mac1609_4 SentAcknowledgements 0
scalar World.node[934].nic.mac1609_4 SNIRLostPackets 773
scalar World.node[934].nic.mac1609_4 RXTXLostPackets 362
scalar World.node[934].nic.mac1609_4 TotalLostPackets 1135
scalar World.node[934].nic.mac1609_4 DroppedPacketsInMac 0
scalar World.node[934].nic.mac1609_4 TooLittleTime 0
scalar World.node[934].nic.mac1609_4 TimesIntoBackoff 645
scalar World.node[934].nic.mac1609_4 SlotsBackoff 4974
scalar World.node[934].nic.mac1609_4 NumInternalContention 0
scalar World.node[934].nic.mac1609_4 totalBusyTime 1.147484869661
scalar World.node[895].appl.middleware.CaService #cam_sent 1044
scalar World.node[895].appl.middleware.ExampleService #full_proofs 0
scalar World.node[895].appl.middleware.ExampleService #half_proofs 4
scalar World.node[895].appl.middleware.ExampleService #failed_proofs 3
scalar World.node[895].appl.middleware.ExampleService #loc_proof_send 92
scalar World.node[895].nic.phy80211p busyTime 0.0043513021276589
scalar World.node[895].nic.mac1609_4 ReceivedUnicastPackets 0
scalar World.node[895].nic.mac1609_4 ReceivedBroadcasts 11607
scalar World.node[895].nic.mac1609_4 SentPackets 1136
scalar World.node[895].nic.mac1609_4 SentAcknowledgements 0
scalar World.node[895].nic.mac1609_4 SNIRLostPackets 1192
scalar World.node[895].nic.mac1609_4 RXTXLostPackets 654
scalar World.node[895].nic.mac1609_4 TotalLostPackets 1846
scalar World.node[895].nic.mac1609_4 DroppedPacketsInMac 0
scalar World.node[895].nic.mac1609_4 TooLittleTime 0
scalar World.node[895].nic.mac1609_4 TimesIntoBackoff 1138
scalar World.node[895].nic.mac1609_4 SlotsBackoff 8393
scalar World.node[895].nic.mac1609_4 NumInternalContention 0
scalar World.node[895].nic.mac1609_4 totalBusyTime 2.160247969123
scalar World.node[914].appl.middleware.CaService #cam_sent 936
scalar World.node[914].appl.middleware.ExampleService #full_proofs 1
scalar World.node[914].appl.middleware.ExampleService #half_proofs 5
scalar World.node[914].appl.middleware.ExampleService #failed_proofs 0
scalar World.node[914].appl.middleware.ExampleService #loc_proof_send 59
scalar World.node[914].nic.phy80211p busyTime 0.0031059900497509
scalar World.node[914].nic.mac1609_4 ReceivedUnicastPackets 0
scalar World.node[914].nic.mac1609_4 ReceivedBroadcasts 7192
scalar World.node[914].nic.mac1609_4 SentPackets 995
scalar World.node[914].nic.mac1609_4 SentAcknowledgements 0
scalar World.node[914].nic.mac1609_4 SNIRLostPackets 536
scalar World.node[914].nic.mac1609_4 RXTXLostPackets 413
scalar World.node[914].nic.mac1609_4 TotalLostPackets 949
scalar World.node[914].nic.mac1609_4 DroppedPacketsInMac 0
scalar World.node[914].nic.mac1609_4 TooLittleTime 0
scalar World.node[914].nic.mac1609_4 TimesIntoBackoff 996
scalar World.node[914].nic.mac1609_4 SlotsBackoff 7762
scalar World.node[914].nic.mac1609_4 NumInternalContention 0
scalar World.node[914].nic.mac1609_4 totalBusyTime 1.384945853884
scalar World.node[919].appl.middleware.CaService #cam_sent 930
scalar World.node[919].appl.middleware.ExampleService #full_proofs 1
scalar World.node[919].appl.middleware.ExampleService #half_proofs 5
scalar World.node[919].appl.middleware.ExampleService #failed_proofs 0
scalar World.node[919].appl.middleware.ExampleService #loc_proof_send 67
scalar World.node[919].nic.phy80211p busyTime 0.0034555886889456
scalar World.node[919].nic.mac1609_4 ReceivedUnicastPackets 0
scalar World.node[919].nic.mac1609_4 ReceivedBroadcasts 7697
scalar World.node[919].nic.mac1609_4 SentPackets 997
scalar World.node[919].nic.mac1609_4 SentAcknowledgements 0
scalar World.node[919].nic.mac1609_4 SNIRLostPackets 644
scalar World.node[919].nic.mac1609_4 RXTXLostPackets 458
scalar World.node[919].nic.mac1609_4 TotalLostPackets 1102
scalar World.node[919].nic.mac1609_4 DroppedPacketsInMac 0
scalar World.node[919].nic.mac1609_4 TooLittleTime 0
scalar World.node[919].nic.mac1609_4 TimesIntoBackoff 1000
scalar World.node[919].nic.mac1609_4 SlotsBackoff 7428
scalar World.node[919].nic.mac1609_4 NumInternalContention 0
scalar World.node[919].nic.mac1609_4 totalBusyTime 1.474859984217
scalar World.node[922].appl.middleware.CaService #cam_sent 762
scalar World.node[922].appl.middleware.ExampleService #full_proofs 0
scalar World.node[922].appl.middleware.ExampleService #half_proofs 3
scalar World.node[922].appl.middleware.ExampleService #failed_proofs 3
scalar World.node[922].appl.middleware.ExampleService #loc_proof_send 58
scalar World.node[922].nic.phy80211p busyTime 0.0029257766233764
scalar World.node[922].nic.mac1609_4 ReceivedUnicastPackets 0
scalar World.node[922].nic.mac1609_4 ReceivedBroadcasts 6426
scalar World.node[922].nic.mac1609_4 SentPackets 820
scalar World.node[922].nic.mac1609_4 SentAcknowledgements 0
scalar World.node[922].nic.mac1609_4 SNIRLostPackets 565
scalar World.node[922].nic.mac1609_4 RXTXLostPackets 359
scalar World.node[922].nic.mac1609_4 TotalLostPackets 924
scalar World.node[922].nic.mac1609_4 DroppedPacketsInMac 0
scalar World.node[922].nic.mac1609_4 TooLittleTime 0
scalar World.node[922].nic.mac1609_4 TimesIntoBackoff 826
scalar World.node[922].nic.mac1609_4 SlotsBackoff 5956
scalar World.node[922].nic.mac1609_4 NumInternalContention 0
scalar World.node[922].nic.mac1609_4 totalBusyTime 1.232095491996
scalar World.node[941].appl.middleware.CaService #cam_sent 917
scalar World.node[941].appl.middleware.ExampleService #full_proofs 0
scalar World.node[941].appl.middleware.ExampleService #half_proofs 3
scalar World.node[941].appl.middleware.ExampleService #failed_proofs 2
scalar World.node[941].appl.middleware.ExampleService #loc_proof_send 48
scalar World.node[941].nic.phy80211p busyTime 0.0020133138686131
scalar World.node[941].nic.mac1609_4 ReceivedUnicastPackets 0
scalar World.node[941].nic.mac1609_4 ReceivedBroadcasts 4758
scalar World.node[941].nic.mac1609_4 SentPackets 965
scalar World.node[941].nic.mac1609_4 SentAcknowledgements 0
scalar World.node[941].nic.mac1609_4 SNIRLostPackets 372
scalar World.node[941].nic.mac1609_4 RXTXLostPackets 320
scalar World.node[941].nic.mac1609_4 TotalLostPackets 692
scalar World.node[941].nic.mac1609_4 DroppedPacketsInMac 0
scalar World.node[941].nic.mac1609_4 TooLittleTime 0
scalar World.node[941].nic.mac1609_4 TimesIntoBackoff 969
scalar World.node[941].nic.mac1609_4 SlotsBackoff 7263
scalar World.node[941].nic.mac1609_4 NumInternalContention 0
scalar World.node[941].nic.mac1609_4 totalBusyTime 0.96484178304

