version 2
run Obstacles-2-20191117-12:27:55-19092
attr configname Obstacles
attr datetime 20191117-12:27:55
attr experiment Obstacles
attr inifile omnetpp.ini
attr iterationvars $0=80
attr iterationvarsf 80-
attr measurement $0=80
attr network artery.veins.World
attr processid 19092
attr repetition 0
attr replication #0
attr resultdir results
attr runnumber 2
attr seedset 2
param *.traci.launcher.sumocfg "\"Obstacles/run.sumo.cfg\""
param *.withObstacles true
param *.obstacles.obstacles "xmldoc(\"config_obstacles.xml\", \"//AnalogueModel[@type='SimpleObstacleShadowing']/obstacles\")"
param *.node[*].nic.mac1609_4.txPower 20mW
param *.node[*].nic.phy80211p.decider "xmldoc(\"config_obstacles.xml\")"
param *.node[*].nic.phy80211p.analogueModels "xmldoc(\"config_obstacles.xml\")"
param *.node[*].applType "\"artery.veins.ApplicationLayer\""
param *.node[*].appl.middleware.updateInterval 0.1s
param *.node[*].appl.middleware.datetime "\"2013-06-01 12:35:00\""
param *.node[*].appl.middleware.services "xmldoc(\"services.xml\")"
param *.node[*].appl.middleware.ExampleService.DecisionLogic 80
param *.node[*].appl.middleware.ExampleService.NeighboringWindow 60
param *.traci.core.version -1
param *.traci.launcher.typename "\"PosixLauncher\""
param *.playgroundSizeX 4000m
param *.playgroundSizeY 4000m
param *.playgroundSizeZ 50m
param *.connectionManager.maxInterfDist 1500m
param *.connectionManager.sendDirect true
param *.connectionManager.coreDebug false

scalar World.node[2].appl.middleware.CaService #cam_sent 56
scalar World.node[2].appl.middleware.ExampleService #full_proofs 0
scalar World.node[2].appl.middleware.ExampleService #half_proofs 0
scalar World.node[2].appl.middleware.ExampleService #failed_proofs 0
scalar World.node[2].appl.middleware.ExampleService #loc_proof_send 0
scalar World.node[2].nic.phy80211p busyTime 2.7111111111111e-05
scalar World.node[2].nic.mac1609_4 ReceivedUnicastPackets 0
scalar World.node[2].nic.mac1609_4 ReceivedBroadcasts 3
scalar World.node[2].nic.mac1609_4 SentPackets 56
scalar World.node[2].nic.mac1609_4 SentAcknowledgements 0
scalar World.node[2].nic.mac1609_4 SNIRLostPackets 0
scalar World.node[2].nic.mac1609_4 RXTXLostPackets 0
scalar World.node[2].nic.mac1609_4 TotalLostPackets 0
scalar World.node[2].nic.mac1609_4 DroppedPacketsInMac 0
scalar World.node[2].nic.mac1609_4 TooLittleTime 0
scalar World.node[2].nic.mac1609_4 TimesIntoBackoff 56
scalar World.node[2].nic.mac1609_4 SlotsBackoff 430
scalar World.node[2].nic.mac1609_4 NumInternalContention 0
scalar World.node[2].nic.mac1609_4 totalBusyTime 0.009696
scalar World.node[3].appl.middleware.CaService #cam_sent 94
scalar World.node[3].appl.middleware.ExampleService #full_proofs 0
scalar World.node[3].appl.middleware.ExampleService #half_proofs 0
scalar World.node[3].appl.middleware.ExampleService #failed_proofs 0
scalar World.node[3].appl.middleware.ExampleService #loc_proof_send 0
scalar World.node[3].nic.phy80211p busyTime 0.00024228571428571
scalar World.node[3].nic.mac1609_4 ReceivedUnicastPackets 0
scalar World.node[3].nic.mac1609_4 ReceivedBroadcasts 38
scalar World.node[3].nic.mac1609_4 SentPackets 94
scalar World.node[3].nic.mac1609_4 SentAcknowledgements 0
scalar World.node[3].nic.mac1609_4 SNIRLostPackets 3
scalar World.node[3].nic.mac1609_4 RXTXLostPackets 0
scalar World.node[3].nic.mac1609_4 TotalLostPackets 3
scalar World.node[3].nic.mac1609_4 DroppedPacketsInMac 0
scalar World.node[3].nic.mac1609_4 TooLittleTime 0
scalar World.node[3].nic.mac1609_4 TimesIntoBackoff 94
scalar World.node[3].nic.mac1609_4 SlotsBackoff 686
scalar World.node[3].nic.mac1609_4 NumInternalContention 0
scalar World.node[3].nic.mac1609_4 totalBusyTime 0.022222
scalar World.node[9].appl.middleware.CaService #cam_sent 104
scalar World.node[9].appl.middleware.ExampleService #full_proofs 0
scalar World.node[9].appl.middleware.ExampleService #half_proofs 0
scalar World.node[9].appl.middleware.ExampleService #failed_proofs 1
scalar World.node[9].appl.middleware.ExampleService #loc_proof_send 2
scalar World.node[9].nic.phy80211p busyTime 0.00043070967741936
scalar World.node[9].nic.mac1609_4 ReceivedUnicastPackets 0
scalar World.node[9].nic.mac1609_4 ReceivedBroadcasts 56
scalar World.node[9].nic.mac1609_4 SentPackets 106
scalar World.node[9].nic.mac1609_4 SentAcknowledgements 0
scalar World.node[9].nic.mac1609_4 SNIRLostPackets 26
scalar World.node[9].nic.mac1609_4 RXTXLostPackets 0
scalar World.node[9].nic.mac1609_4 TotalLostPackets 26
scalar World.node[9].nic.mac1609_4 DroppedPacketsInMac 0
scalar World.node[9].nic.mac1609_4 TooLittleTime 0
scalar World.node[9].nic.mac1609_4 TimesIntoBackoff 106
scalar World.node[9].nic.mac1609_4 SlotsBackoff 763
scalar World.node[9].nic.mac1609_4 NumInternalContention 0
scalar World.node[9].nic.mac1609_4 totalBusyTime 0.030642
scalar World.node[21].appl.middleware.CaService #cam_sent 34
scalar World.node[21].appl.middleware.ExampleService #full_proofs 0
scalar World.node[21].appl.middleware.ExampleService #half_proofs 0
scalar World.node[21].appl.middleware.ExampleService #failed_proofs 0
scalar World.node[21].appl.middleware.ExampleService #loc_proof_send 0
scalar World.node[21].nic.phy80211p busyTime 0.002868
scalar World.node[21].nic.mac1609_4 ReceivedUnicastPackets 0
scalar World.node[21].nic.mac1609_4 ReceivedBroadcasts 169
scalar World.node[21].nic.mac1609_4 SentPackets 34
scalar World.node[21].nic.mac1609_4 SentAcknowledgements 0
scalar World.node[21].nic.mac1609_4 SNIRLostPackets 6
scalar World.node[21].nic.mac1609_4 RXTXLostPackets 0
scalar World.node[21].nic.mac1609_4 TotalLostPackets 6
scalar World.node[21].nic.mac1609_4 DroppedPacketsInMac 0
scalar World.node[21].nic.mac1609_4 TooLittleTime 0
scalar World.node[21].nic.mac1609_4 TimesIntoBackoff 34
scalar World.node[21].nic.mac1609_4 SlotsBackoff 262
scalar World.node[21].nic.mac1609_4 NumInternalContention 0
scalar World.node[21].nic.mac1609_4 totalBusyTime 0.034266
scalar World.node[0].appl.middleware.CaService #cam_sent 208
scalar World.node[0].appl.middleware.ExampleService #full_proofs 0
scalar World.node[0].appl.middleware.ExampleService #half_proofs 1
scalar World.node[0].appl.middleware.ExampleService #failed_proofs 0
scalar World.node[0].appl.middleware.ExampleService #loc_proof_send 3
scalar World.node[0].nic.phy80211p busyTime 0.0010548679245283
scalar World.node[0].nic.mac1609_4 ReceivedUnicastPackets 0
scalar World.node[0].nic.mac1609_4 ReceivedBroadcasts 660
scalar World.node[0].nic.mac1609_4 SentPackets 211
scalar World.node[0].nic.mac1609_4 SentAcknowledgements 0
scalar World.node[0].nic.mac1609_4 SNIRLostPackets 27
scalar World.node[0].nic.mac1609_4 RXTXLostPackets 1
scalar World.node[0].nic.mac1609_4 TotalLostPackets 28
scalar World.node[0].nic.mac1609_4 DroppedPacketsInMac 0
scalar World.node[0].nic.mac1609_4 TooLittleTime 0
scalar World.node[0].nic.mac1609_4 TimesIntoBackoff 211
scalar World.node[0].nic.mac1609_4 SlotsBackoff 1766
scalar World.node[0].nic.mac1609_4 NumInternalContention 0
scalar World.node[0].nic.mac1609_4 totalBusyTime 0.146283
scalar World.node[1].appl.middleware.CaService #cam_sent 274
scalar World.node[1].appl.middleware.ExampleService #full_proofs 0
scalar World.node[1].appl.middleware.ExampleService #half_proofs 0
scalar World.node[1].appl.middleware.ExampleService #failed_proofs 1
scalar World.node[1].appl.middleware.ExampleService #loc_proof_send 6
scalar World.node[1].nic.phy80211p busyTime 0.0013043047619048
scalar World.node[1].nic.mac1609_4 ReceivedUnicastPackets 0
scalar World.node[1].nic.mac1609_4 ReceivedBroadcasts 822
scalar World.node[1].nic.mac1609_4 SentPackets 280
scalar World.node[1].nic.mac1609_4 SentAcknowledgements 0
scalar World.node[1].nic.mac1609_4 SNIRLostPackets 22
scalar World.node[1].nic.mac1609_4 RXTXLostPackets 5
scalar World.node[1].nic.mac1609_4 TotalLostPackets 27
scalar World.node[1].nic.mac1609_4 DroppedPacketsInMac 0
scalar World.node[1].nic.mac1609_4 TooLittleTime 0
scalar World.node[1].nic.mac1609_4 TimesIntoBackoff 280
scalar World.node[1].nic.mac1609_4 SlotsBackoff 2110
scalar World.node[1].nic.mac1609_4 NumInternalContention 0
scalar World.node[1].nic.mac1609_4 totalBusyTime 0.182216
scalar World.node[6].appl.middleware.CaService #cam_sent 342
scalar World.node[6].appl.middleware.ExampleService #full_proofs 1
scalar World.node[6].appl.middleware.ExampleService #half_proofs 0
scalar World.node[6].appl.middleware.ExampleService #failed_proofs 0
scalar World.node[6].appl.middleware.ExampleService #loc_proof_send 7
scalar World.node[6].nic.phy80211p busyTime 0.0011153613445378
scalar World.node[6].nic.mac1609_4 ReceivedUnicastPackets 0
scalar World.node[6].nic.mac1609_4 ReceivedBroadcasts 744
scalar World.node[6].nic.mac1609_4 SentPackets 349
scalar World.node[6].nic.mac1609_4 SentAcknowledgements 0
scalar World.node[6].nic.mac1609_4 SNIRLostPackets 75
scalar World.node[6].nic.mac1609_4 RXTXLostPackets 9
scalar World.node[6].nic.mac1609_4 TotalLostPackets 84
scalar World.node[6].nic.mac1609_4 DroppedPacketsInMac 0
scalar World.node[6].nic.mac1609_4 TooLittleTime 0
scalar World.node[6].nic.mac1609_4 TimesIntoBackoff 354
scalar World.node[6].nic.mac1609_4 SlotsBackoff 2640
scalar World.node[6].nic.mac1609_4 NumInternalContention 0
scalar World.node[6].nic.mac1609_4 totalBusyTime 0.189637
scalar World.node[19].appl.middleware.CaService #cam_sent 210
scalar World.node[19].appl.middleware.ExampleService #full_proofs 0
scalar World.node[19].appl.middleware.ExampleService #half_proofs 2
scalar World.node[19].appl.middleware.ExampleService #failed_proofs 0
scalar World.node[19].appl.middleware.ExampleService #loc_proof_send 8
scalar World.node[19].nic.phy80211p busyTime 0.0030182105263158
scalar World.node[19].nic.mac1609_4 ReceivedUnicastPackets 0
scalar World.node[19].nic.mac1609_4 ReceivedBroadcasts 1318
scalar World.node[19].nic.mac1609_4 SentPackets 218
scalar World.node[19].nic.mac1609_4 SentAcknowledgements 0
scalar World.node[19].nic.mac1609_4 SNIRLostPackets 102
scalar World.node[19].nic.mac1609_4 RXTXLostPackets 7
scalar World.node[19].nic.mac1609_4 TotalLostPackets 109
scalar World.node[19].nic.mac1609_4 DroppedPacketsInMac 0
scalar World.node[19].nic.mac1609_4 TooLittleTime 0
scalar World.node[19].nic.mac1609_4 TimesIntoBackoff 221
scalar World.node[19].nic.mac1609_4 SlotsBackoff 1582
scalar World.node[19].nic.mac1609_4 NumInternalContention 0
scalar World.node[19].nic.mac1609_4 totalBusyTime 0.264114000594
scalar World.node[22].appl.middleware.CaService #cam_sent 188
scalar World.node[22].appl.middleware.ExampleService #full_proofs 0
scalar World.node[22].appl.middleware.ExampleService #half_proofs 1
scalar World.node[22].appl.middleware.ExampleService #failed_proofs 0
scalar World.node[22].appl.middleware.ExampleService #loc_proof_send 6
scalar World.node[22].nic.phy80211p busyTime 0.0030958571428571
scalar World.node[22].nic.mac1609_4 ReceivedUnicastPackets 0
scalar World.node[22].nic.mac1609_4 ReceivedBroadcasts 970
scalar World.node[22].nic.mac1609_4 SentPackets 194
scalar World.node[22].nic.mac1609_4 SentAcknowledgements 0
scalar World.node[22].nic.mac1609_4 SNIRLostPackets 103
scalar World.node[22].nic.mac1609_4 RXTXLostPackets 3
scalar World.node[22].nic.mac1609_4 TotalLostPackets 106
scalar World.node[22].nic.mac1609_4 DroppedPacketsInMac 0
scalar World.node[22].nic.mac1609_4 TooLittleTime 0
scalar World.node[22].nic.mac1609_4 TimesIntoBackoff 194
scalar World.node[22].nic.mac1609_4 SlotsBackoff 1359
scalar World.node[22].nic.mac1609_4 NumInternalContention 0
scalar World.node[22].nic.mac1609_4 totalBusyTime 0.20387400771
scalar World.node[13].appl.middleware.CaService #cam_sent 337
scalar World.node[13].appl.middleware.ExampleService #full_proofs 1
scalar World.node[13].appl.middleware.ExampleService #half_proofs 1
scalar World.node[13].appl.middleware.ExampleService #failed_proofs 0
scalar World.node[13].appl.middleware.ExampleService #loc_proof_send 8
scalar World.node[13].nic.phy80211p busyTime 0.002449009009009
scalar World.node[13].nic.mac1609_4 ReceivedUnicastPackets 0
scalar World.node[13].nic.mac1609_4 ReceivedBroadcasts 1564
scalar World.node[13].nic.mac1609_4 SentPackets 345
scalar World.node[13].nic.mac1609_4 SentAcknowledgements 0
scalar World.node[13].nic.mac1609_4 SNIRLostPackets 116
scalar World.node[13].nic.mac1609_4 RXTXLostPackets 5
scalar World.node[13].nic.mac1609_4 TotalLostPackets 121
scalar World.node[13].nic.mac1609_4 DroppedPacketsInMac 0
scalar World.node[13].nic.mac1609_4 TooLittleTime 0
scalar World.node[13].nic.mac1609_4 TimesIntoBackoff 346
scalar World.node[13].nic.mac1609_4 SlotsBackoff 2582
scalar World.node[13].nic.mac1609_4 NumInternalContention 0
scalar World.node[13].nic.mac1609_4 totalBusyTime 0.325745041452
scalar World.node[8].appl.middleware.CaService #cam_sent 352
scalar World.node[8].appl.middleware.ExampleService #full_proofs 0
scalar World.node[8].appl.middleware.ExampleService #half_proofs 2
scalar World.node[8].appl.middleware.ExampleService #failed_proofs 0
scalar World.node[8].appl.middleware.ExampleService #loc_proof_send 13
scalar World.node[8].nic.phy80211p busyTime 0.0022330588235294
scalar World.node[8].nic.mac1609_4 ReceivedUnicastPackets 0
scalar World.node[8].nic.mac1609_4 ReceivedBroadcasts 1804
scalar World.node[8].nic.mac1609_4 SentPackets 365
scalar World.node[8].nic.mac1609_4 SentAcknowledgements 0
scalar World.node[8].nic.mac1609_4 SNIRLostPackets 69
scalar World.node[8].nic.mac1609_4 RXTXLostPackets 17
scalar World.node[8].nic.mac1609_4 TotalLostPackets 86
scalar World.node[8].nic.mac1609_4 DroppedPacketsInMac 0
scalar World.node[8].nic.mac1609_4 TooLittleTime 0
scalar World.node[8].nic.mac1609_4 TimesIntoBackoff 367
scalar World.node[8].nic.mac1609_4 SlotsBackoff 2773
scalar World.node[8].nic.mac1609_4 NumInternalContention 0
scalar World.node[8].nic.mac1609_4 totalBusyTime 0.362189
scalar World.node[35].appl.middleware.CaService #cam_sent 144
scalar World.node[35].appl.middleware.ExampleService #full_proofs 0
scalar World.node[35].appl.middleware.ExampleService #half_proofs 0
scalar World.node[35].appl.middleware.ExampleService #failed_proofs 0
scalar World.node[35].appl.middleware.ExampleService #loc_proof_send 1
scalar World.node[35].nic.phy80211p busyTime 0.0021047441860465
scalar World.node[35].nic.mac1609_4 ReceivedUnicastPackets 0
scalar World.node[35].nic.mac1609_4 ReceivedBroadcasts 489
scalar World.node[35].nic.mac1609_4 SentPackets 145
scalar World.node[35].nic.mac1609_4 SentAcknowledgements 0
scalar World.node[35].nic.mac1609_4 SNIRLostPackets 68
scalar World.node[35].nic.mac1609_4 RXTXLostPackets 5
scalar World.node[35].nic.mac1609_4 TotalLostPackets 73
scalar World.node[35].nic.mac1609_4 DroppedPacketsInMac 0
scalar World.node[35].nic.mac1609_4 TooLittleTime 0
scalar World.node[35].nic.mac1609_4 TimesIntoBackoff 146
scalar World.node[35].nic.mac1609_4 SlotsBackoff 1138
scalar World.node[35].nic.mac1609_4 NumInternalContention 0
scalar World.node[35].nic.mac1609_4 totalBusyTime 0.114049
scalar World.node[15].appl.middleware.CaService #cam_sent 409
scalar World.node[15].appl.middleware.ExampleService #full_proofs 0
scalar World.node[15].appl.middleware.ExampleService #half_proofs 2
scalar World.node[15].appl.middleware.ExampleService #failed_proofs 0
scalar World.node[15].appl.middleware.ExampleService #loc_proof_send 17
scalar World.node[15].nic.phy80211p busyTime 0.0028589253731343
scalar World.node[15].nic.mac1609_4 ReceivedUnicastPackets 0
scalar World.node[15].nic.mac1609_4 ReceivedBroadcasts 2289
scalar World.node[15].nic.mac1609_4 SentPackets 426
scalar World.node[15].nic.mac1609_4 SentAcknowledgements 0
scalar World.node[15].nic.mac1609_4 SNIRLostPackets 84
scalar World.node[15].nic.mac1609_4 RXTXLostPackets 9
scalar World.node[15].nic.mac1609_4 TotalLostPackets 93
scalar World.node[15].nic.mac1609_4 DroppedPacketsInMac 0
scalar World.node[15].nic.mac1609_4 TooLittleTime 0
scalar World.node[15].nic.mac1609_4 TimesIntoBackoff 428
scalar World.node[15].nic.mac1609_4 SlotsBackoff 3053
scalar World.node[15].nic.mac1609_4 NumInternalContention 0
scalar World.node[15].nic.mac1609_4 totalBusyTime 0.449194300197
scalar World.node[16].appl.middleware.CaService #cam_sent 351
scalar World.node[16].appl.middleware.ExampleService #full_proofs 0
scalar World.node[16].appl.middleware.ExampleService #half_proofs 1
scalar World.node[16].appl.middleware.ExampleService #failed_proofs 0
scalar World.node[16].appl.middleware.ExampleService #loc_proof_send 9
scalar World.node[16].nic.phy80211p busyTime 0.0027258015267175
scalar World.node[16].nic.mac1609_4 ReceivedUnicastPackets 0
scalar World.node[16].nic.mac1609_4 ReceivedBroadcasts 2082
scalar World.node[16].nic.mac1609_4 SentPackets 360
scalar World.node[16].nic.mac1609_4 SentAcknowledgements 0
scalar World.node[16].nic.mac1609_4 SNIRLostPackets 125
scalar World.node[16].nic.mac1609_4 RXTXLostPackets 11
scalar World.node[16].nic.mac1609_4 TotalLostPackets 136
scalar World.node[16].nic.mac1609_4 DroppedPacketsInMac 0
scalar World.node[16].nic.mac1609_4 TooLittleTime 0
scalar World.node[16].nic.mac1609_4 TimesIntoBackoff 364
scalar World.node[16].nic.mac1609_4 SlotsBackoff 2861
scalar World.node[16].nic.mac1609_4 NumInternalContention 0
scalar World.node[16].nic.mac1609_4 totalBusyTime 0.414104227934
scalar World.node[40].appl.middleware.CaService #cam_sent 92
scalar World.node[40].appl.middleware.ExampleService #full_proofs 0
scalar World.node[40].appl.middleware.ExampleService #half_proofs 1
scalar World.node[40].appl.middleware.ExampleService #failed_proofs 0
scalar World.node[40].appl.middleware.ExampleService #loc_proof_send 6
scalar World.node[40].nic.phy80211p busyTime 0.0038142222222222
scalar World.node[40].nic.mac1609_4 ReceivedUnicastPackets 0
scalar World.node[40].nic.mac1609_4 ReceivedBroadcasts 587
scalar World.node[40].nic.mac1609_4 SentPackets 98
scalar World.node[40].nic.mac1609_4 SentAcknowledgements 0
scalar World.node[40].nic.mac1609_4 SNIRLostPackets 65
scalar World.node[40].nic.mac1609_4 RXTXLostPackets 0
scalar World.node[40].nic.mac1609_4 TotalLostPackets 65
scalar World.node[40].nic.mac1609_4 DroppedPacketsInMac 0
scalar World.node[40].nic.mac1609_4 TooLittleTime 0
scalar World.node[40].nic.mac1609_4 TimesIntoBackoff 98
scalar World.node[40].nic.mac1609_4 SlotsBackoff 746
scalar World.node[40].nic.mac1609_4 NumInternalContention 0
scalar World.node[40].nic.mac1609_4 totalBusyTime 0.114242
scalar World.node[14].appl.middleware.CaService #cam_sent 482
scalar World.node[14].appl.middleware.ExampleService #full_proofs 0
scalar World.node[14].appl.middleware.ExampleService #half_proofs 2
scalar World.node[14].appl.middleware.ExampleService #failed_proofs 0
scalar World.node[14].appl.middleware.ExampleService #loc_proof_send 12
scalar World.node[14].nic.phy80211p busyTime 0.00261
scalar World.node[14].nic.mac1609_4 ReceivedUnicastPackets 0
scalar World.node[14].nic.mac1609_4 ReceivedBroadcasts 2149
scalar World.node[14].nic.mac1609_4 SentPackets 494
scalar World.node[14].nic.mac1609_4 SentAcknowledgements 0
scalar World.node[14].nic.mac1609_4 SNIRLostPackets 177
scalar World.node[14].nic.mac1609_4 RXTXLostPackets 25
scalar World.node[14].nic.mac1609_4 TotalLostPackets 202
scalar World.node[14].nic.mac1609_4 DroppedPacketsInMac 0
scalar World.node[14].nic.mac1609_4 TooLittleTime 0
scalar World.node[14].nic.mac1609_4 TimesIntoBackoff 496
scalar World.node[14].nic.mac1609_4 SlotsBackoff 3551
scalar World.node[14].nic.mac1609_4 NumInternalContention 0
scalar World.node[14].nic.mac1609_4 totalBusyTime 0.453022000009
scalar World.node[10].appl.middleware.CaService #cam_sent 399
scalar World.node[10].appl.middleware.ExampleService #full_proofs 0
scalar World.node[10].appl.middleware.ExampleService #half_proofs 1
scalar World.node[10].appl.middleware.ExampleService #failed_proofs 0
scalar World.node[10].appl.middleware.ExampleService #loc_proof_send 20
scalar World.node[10].nic.phy80211p busyTime 0.0031023396226415
scalar World.node[10].nic.mac1609_4 ReceivedUnicastPackets 0
scalar World.node[10].nic.mac1609_4 ReceivedBroadcasts 2861
scalar World.node[10].nic.mac1609_4 SentPackets 419
scalar World.node[10].nic.mac1609_4 SentAcknowledgements 0
scalar World.node[10].nic.mac1609_4 SNIRLostPackets 191
scalar World.node[10].nic.mac1609_4 RXTXLostPackets 37
scalar World.node[10].nic.mac1609_4 TotalLostPackets 228
scalar World.node[10].nic.mac1609_4 DroppedPacketsInMac 0
scalar World.node[10].nic.mac1609_4 TooLittleTime 0
scalar World.node[10].nic.mac1609_4 TimesIntoBackoff 422
scalar World.node[10].nic.mac1609_4 SlotsBackoff 3185
scalar World.node[10].nic.mac1609_4 NumInternalContention 0
scalar World.node[10].nic.mac1609_4 totalBusyTime 0.550843111876
scalar World.node[7].appl.middleware.CaService #cam_sent 484
scalar World.node[7].appl.middleware.ExampleService #full_proofs 1
scalar World.node[7].appl.middleware.ExampleService #half_proofs 1
scalar World.node[7].appl.middleware.ExampleService #failed_proofs 1
scalar World.node[7].appl.middleware.ExampleService #loc_proof_send 15
scalar World.node[7].nic.phy80211p busyTime 0.0017750960451977
scalar World.node[7].nic.mac1609_4 ReceivedUnicastPackets 0
scalar World.node[7].nic.mac1609_4 ReceivedBroadcasts 1769
scalar World.node[7].nic.mac1609_4 SentPackets 499
scalar World.node[7].nic.mac1609_4 SentAcknowledgements 0
scalar World.node[7].nic.mac1609_4 SNIRLostPackets 172
scalar World.node[7].nic.mac1609_4 RXTXLostPackets 52
scalar World.node[7].nic.mac1609_4 TotalLostPackets 224
scalar World.node[7].nic.mac1609_4 DroppedPacketsInMac 0
scalar World.node[7].nic.mac1609_4 TooLittleTime 0
scalar World.node[7].nic.mac1609_4 TimesIntoBackoff 499
scalar World.node[7].nic.mac1609_4 SlotsBackoff 3584
scalar World.node[7].nic.mac1609_4 NumInternalContention 0
scalar World.node[7].nic.mac1609_4 totalBusyTime 0.394323190111
scalar World.node[30].appl.middleware.CaService #cam_sent 275
scalar World.node[30].appl.middleware.ExampleService #full_proofs 0
scalar World.node[30].appl.middleware.ExampleService #half_proofs 2
scalar World.node[30].appl.middleware.ExampleService #failed_proofs 0
scalar World.node[30].appl.middleware.ExampleService #loc_proof_send 14
scalar World.node[30].nic.phy80211p busyTime 0.0036140659340659
scalar World.node[30].nic.mac1609_4 ReceivedUnicastPackets 0
scalar World.node[30].nic.mac1609_4 ReceivedBroadcasts 1871
scalar World.node[30].nic.mac1609_4 SentPackets 289
scalar World.node[30].nic.mac1609_4 SentAcknowledgements 0
scalar World.node[30].nic.mac1609_4 SNIRLostPackets 169
scalar World.node[30].nic.mac1609_4 RXTXLostPackets 36
scalar World.node[30].nic.mac1609_4 TotalLostPackets 205
scalar World.node[30].nic.mac1609_4 DroppedPacketsInMac 0
scalar World.node[30].nic.mac1609_4 TooLittleTime 0
scalar World.node[30].nic.mac1609_4 TimesIntoBackoff 297
scalar World.node[30].nic.mac1609_4 SlotsBackoff 2190
scalar World.node[30].nic.mac1609_4 NumInternalContention 0
scalar World.node[30].nic.mac1609_4 totalBusyTime 0.372569625058
scalar World.node[27].appl.middleware.CaService #cam_sent 374
scalar World.node[27].appl.middleware.ExampleService #full_proofs 0
scalar World.node[27].appl.middleware.ExampleService #half_proofs 2
scalar World.node[27].appl.middleware.ExampleService #failed_proofs 0
scalar World.node[27].appl.middleware.ExampleService #loc_proof_send 16
scalar World.node[27].nic.phy80211p busyTime 0.0031345210084033
scalar World.node[27].nic.mac1609_4 ReceivedUnicastPackets 0
scalar World.node[27].nic.mac1609_4 ReceivedBroadcasts 2050
scalar World.node[27].nic.mac1609_4 SentPackets 390
scalar World.node[27].nic.mac1609_4 SentAcknowledgements 0
scalar World.node[27].nic.mac1609_4 SNIRLostPackets 262
scalar World.node[27].nic.mac1609_4 RXTXLostPackets 43
scalar World.node[27].nic.mac1609_4 TotalLostPackets 305
scalar World.node[27].nic.mac1609_4 DroppedPacketsInMac 0
scalar World.node[27].nic.mac1609_4 TooLittleTime 0
scalar World.node[27].nic.mac1609_4 TimesIntoBackoff 394
scalar World.node[27].nic.mac1609_4 SlotsBackoff 2912
scalar World.node[27].nic.mac1609_4 NumInternalContention 0
scalar World.node[27].nic.mac1609_4 totalBusyTime 0.432135047339
scalar World.node[33].appl.middleware.CaService #cam_sent 252
scalar World.node[33].appl.middleware.ExampleService #full_proofs 0
scalar World.node[33].appl.middleware.ExampleService #half_proofs 1
scalar World.node[33].appl.middleware.ExampleService #failed_proofs 0
scalar World.node[33].appl.middleware.ExampleService #loc_proof_send 14
scalar World.node[33].nic.phy80211p busyTime 0.0040335353535353
scalar World.node[33].nic.mac1609_4 ReceivedUnicastPackets 0
scalar World.node[33].nic.mac1609_4 ReceivedBroadcasts 2224
scalar World.node[33].nic.mac1609_4 SentPackets 266
scalar World.node[33].nic.mac1609_4 SentAcknowledgements 0
scalar World.node[33].nic.mac1609_4 SNIRLostPackets 250
scalar World.node[33].nic.mac1609_4 RXTXLostPackets 48
scalar World.node[33].nic.mac1609_4 TotalLostPackets 298
scalar World.node[33].nic.mac1609_4 DroppedPacketsInMac 0
scalar World.node[33].nic.mac1609_4 TooLittleTime 0
scalar World.node[33].nic.mac1609_4 TimesIntoBackoff 266
scalar World.node[33].nic.mac1609_4 SlotsBackoff 1929
scalar World.node[33].nic.mac1609_4 NumInternalContention 0
scalar World.node[33].nic.mac1609_4 totalBusyTime 0.438666360649
scalar World.node[31].appl.middleware.CaService #cam_sent 373
scalar World.node[31].appl.middleware.ExampleService #full_proofs 0
scalar World.node[31].appl.middleware.ExampleService #half_proofs 1
scalar World.node[31].appl.middleware.ExampleService #failed_proofs 1
scalar World.node[31].appl.middleware.ExampleService #loc_proof_send 15
scalar World.node[31].nic.phy80211p busyTime 0.0027749830508474
scalar World.node[31].nic.mac1609_4 ReceivedUnicastPackets 0
scalar World.node[31].nic.mac1609_4 ReceivedBroadcasts 1873
scalar World.node[31].nic.mac1609_4 SentPackets 388
scalar World.node[31].nic.mac1609_4 SentAcknowledgements 0
scalar World.node[31].nic.mac1609_4 SNIRLostPackets 167
scalar World.node[31].nic.mac1609_4 RXTXLostPackets 36
scalar World.node[31].nic.mac1609_4 TotalLostPackets 203
scalar World.node[31].nic.mac1609_4 DroppedPacketsInMac 0
scalar World.node[31].nic.mac1609_4 TooLittleTime 0
scalar World.node[31].nic.mac1609_4 TimesIntoBackoff 388
scalar World.node[31].nic.mac1609_4 SlotsBackoff 2858
scalar World.node[31].nic.mac1609_4 NumInternalContention 0
scalar World.node[31].nic.mac1609_4 totalBusyTime 0.385565178801
scalar World.node[24].appl.middleware.CaService #cam_sent 424
scalar World.node[24].appl.middleware.ExampleService #full_proofs 0
scalar World.node[24].appl.middleware.ExampleService #half_proofs 2
scalar World.node[24].appl.middleware.ExampleService #failed_proofs 0
scalar World.node[24].appl.middleware.ExampleService #loc_proof_send 13
scalar World.node[24].nic.phy80211p busyTime 0.0025110857142857
scalar World.node[24].nic.mac1609_4 ReceivedUnicastPackets 0
scalar World.node[24].nic.mac1609_4 ReceivedBroadcasts 2060
scalar World.node[24].nic.mac1609_4 SentPackets 437
scalar World.node[24].nic.mac1609_4 SentAcknowledgements 0
scalar World.node[24].nic.mac1609_4 SNIRLostPackets 113
scalar World.node[24].nic.mac1609_4 RXTXLostPackets 18
scalar World.node[24].nic.mac1609_4 TotalLostPackets 131
scalar World.node[24].nic.mac1609_4 DroppedPacketsInMac 0
scalar World.node[24].nic.mac1609_4 TooLittleTime 0
scalar World.node[24].nic.mac1609_4 TimesIntoBackoff 443
scalar World.node[24].nic.mac1609_4 SlotsBackoff 3410
scalar World.node[24].nic.mac1609_4 NumInternalContention 0
scalar World.node[24].nic.mac1609_4 totalBusyTime 0.421069164525
scalar World.node[12].appl.middleware.CaService #cam_sent 641
scalar World.node[12].appl.middleware.ExampleService #full_proofs 0
scalar World.node[12].appl.middleware.ExampleService #half_proofs 3
scalar World.node[12].appl.middleware.ExampleService #failed_proofs 0
scalar World.node[12].appl.middleware.ExampleService #loc_proof_send 23
scalar World.node[12].nic.phy80211p busyTime 0.0025292462311557
scalar World.node[12].nic.mac1609_4 ReceivedUnicastPackets 0
scalar World.node[12].nic.mac1609_4 ReceivedBroadcasts 2805
scalar World.node[12].nic.mac1609_4 SentPackets 664
scalar World.node[12].nic.mac1609_4 SentAcknowledgements 0
scalar World.node[12].nic.mac1609_4 SNIRLostPackets 315
scalar World.node[12].nic.mac1609_4 RXTXLostPackets 38
scalar World.node[12].nic.mac1609_4 TotalLostPackets 353
scalar World.node[12].nic.mac1609_4 DroppedPacketsInMac 0
scalar World.node[12].nic.mac1609_4 TooLittleTime 0
scalar World.node[12].nic.mac1609_4 TimesIntoBackoff 667
scalar World.node[12].nic.mac1609_4 SlotsBackoff 5058
scalar World.node[12].nic.mac1609_4 NumInternalContention 0
scalar World.node[12].nic.mac1609_4 totalBusyTime 0.605513226014
scalar World.node[53].appl.middleware.CaService #cam_sent 108
scalar World.node[53].appl.middleware.ExampleService #full_proofs 1
scalar World.node[53].appl.middleware.ExampleService #half_proofs 0
scalar World.node[53].appl.middleware.ExampleService #failed_proofs 0
scalar World.node[53].appl.middleware.ExampleService #loc_proof_send 2
scalar World.node[53].nic.phy80211p busyTime 0.00100975
scalar World.node[53].nic.mac1609_4 ReceivedUnicastPackets 0
scalar World.node[53].nic.mac1609_4 ReceivedBroadcasts 173
scalar World.node[53].nic.mac1609_4 SentPackets 110
scalar World.node[53].nic.mac1609_4 SentAcknowledgements 0
scalar World.node[53].nic.mac1609_4 SNIRLostPackets 27
scalar World.node[53].nic.mac1609_4 RXTXLostPackets 0
scalar World.node[53].nic.mac1609_4 TotalLostPackets 27
scalar World.node[53].nic.mac1609_4 DroppedPacketsInMac 0
scalar World.node[53].nic.mac1609_4 TooLittleTime 0
scalar World.node[53].nic.mac1609_4 TimesIntoBackoff 111
scalar World.node[53].nic.mac1609_4 SlotsBackoff 798
scalar World.node[53].nic.mac1609_4 NumInternalContention 0
scalar World.node[53].nic.mac1609_4 totalBusyTime 0.050262
scalar World.node[26].appl.middleware.CaService #cam_sent 411
scalar World.node[26].appl.middleware.ExampleService #full_proofs 0
scalar World.node[26].appl.middleware.ExampleService #half_proofs 2
scalar World.node[26].appl.middleware.ExampleService #failed_proofs 0
scalar World.node[26].appl.middleware.ExampleService #loc_proof_send 19
scalar World.node[26].nic.phy80211p busyTime 0.0026713972602739
scalar World.node[26].nic.mac1609_4 ReceivedUnicastPackets 0
scalar World.node[26].nic.mac1609_4 ReceivedBroadcasts 2170
scalar World.node[26].nic.mac1609_4 SentPackets 430
scalar World.node[26].nic.mac1609_4 SentAcknowledgements 0
scalar World.node[26].nic.mac1609_4 SNIRLostPackets 247
scalar World.node[26].nic.mac1609_4 RXTXLostPackets 56
scalar World.node[26].nic.mac1609_4 TotalLostPackets 303
scalar World.node[26].nic.mac1609_4 DroppedPacketsInMac 0
scalar World.node[26].nic.mac1609_4 TooLittleTime 0
scalar World.node[26].nic.mac1609_4 TimesIntoBackoff 434
scalar World.node[26].nic.mac1609_4 SlotsBackoff 3193
scalar World.node[26].nic.mac1609_4 NumInternalContention 0
scalar World.node[26].nic.mac1609_4 totalBusyTime 0.456374
scalar World.node[38].appl.middleware.CaService #cam_sent 320
scalar World.node[38].appl.middleware.ExampleService #full_proofs 0
scalar World.node[38].appl.middleware.ExampleService #half_proofs 2
scalar World.node[38].appl.middleware.ExampleService #failed_proofs 0
scalar World.node[38].appl.middleware.ExampleService #loc_proof_send 8
scalar World.node[38].nic.phy80211p busyTime 0.0029852
scalar World.node[38].nic.mac1609_4 ReceivedUnicastPackets 0
scalar World.node[38].nic.mac1609_4 ReceivedBroadcasts 1675
scalar World.node[38].nic.mac1609_4 SentPackets 328
scalar World.node[38].nic.mac1609_4 SentAcknowledgements 0
scalar World.node[38].nic.mac1609_4 SNIRLostPackets 182
scalar World.node[38].nic.mac1609_4 RXTXLostPackets 8
scalar World.node[38].nic.mac1609_4 TotalLostPackets 190
scalar World.node[38].nic.mac1609_4 DroppedPacketsInMac 0
scalar World.node[38].nic.mac1609_4 TooLittleTime 0
scalar World.node[38].nic.mac1609_4 TimesIntoBackoff 359
scalar World.node[38].nic.mac1609_4 SlotsBackoff 2710
scalar World.node[38].nic.mac1609_4 NumInternalContention 0
scalar World.node[38].nic.mac1609_4 totalBusyTime 0.347976280994
scalar World.node[63].appl.middleware.CaService #cam_sent 38
scalar World.node[63].appl.middleware.ExampleService #full_proofs 0
scalar World.node[63].appl.middleware.ExampleService #half_proofs 0
scalar World.node[63].appl.middleware.ExampleService #failed_proofs 0
scalar World.node[63].appl.middleware.ExampleService #loc_proof_send 3
scalar World.node[63].nic.phy80211p busyTime 0.0033149090909091
scalar World.node[63].nic.mac1609_4 ReceivedUnicastPackets 0
scalar World.node[63].nic.mac1609_4 ReceivedBroadcasts 192
scalar World.node[63].nic.mac1609_4 SentPackets 41
scalar World.node[63].nic.mac1609_4 SentAcknowledgements 0
scalar World.node[63].nic.mac1609_4 SNIRLostPackets 36
scalar World.node[63].nic.mac1609_4 RXTXLostPackets 15
scalar World.node[63].nic.mac1609_4 TotalLostPackets 51
scalar World.node[63].nic.mac1609_4 DroppedPacketsInMac 0
scalar World.node[63].nic.mac1609_4 TooLittleTime 0
scalar World.node[63].nic.mac1609_4 TimesIntoBackoff 42
scalar World.node[63].nic.mac1609_4 SlotsBackoff 327
scalar World.node[63].nic.mac1609_4 NumInternalContention 0
scalar World.node[63].nic.mac1609_4 totalBusyTime 0.041281140787
scalar World.node[54].appl.middleware.CaService #cam_sent 192
scalar World.node[54].appl.middleware.ExampleService #full_proofs 0
scalar World.node[54].appl.middleware.ExampleService #half_proofs 1
scalar World.node[54].appl.middleware.ExampleService #failed_proofs 0
scalar World.node[54].appl.middleware.ExampleService #loc_proof_send 12
scalar World.node[54].nic.phy80211p busyTime 0.0052343859649122
scalar World.node[54].nic.mac1609_4 ReceivedUnicastPackets 0
scalar World.node[54].nic.mac1609_4 ReceivedBroadcasts 1695
scalar World.node[54].nic.mac1609_4 SentPackets 204
scalar World.node[54].nic.mac1609_4 SentAcknowledgements 0
scalar World.node[54].nic.mac1609_4 SNIRLostPackets 166
scalar World.node[54].nic.mac1609_4 RXTXLostPackets 26
scalar World.node[54].nic.mac1609_4 TotalLostPackets 192
scalar World.node[54].nic.mac1609_4 DroppedPacketsInMac 0
scalar World.node[54].nic.mac1609_4 TooLittleTime 0
scalar World.node[54].nic.mac1609_4 TimesIntoBackoff 205
scalar World.node[54].nic.mac1609_4 SlotsBackoff 1495
scalar World.node[54].nic.mac1609_4 NumInternalContention 0
scalar World.node[54].nic.mac1609_4 totalBusyTime 0.32681034071
scalar World.node[20].appl.middleware.CaService #cam_sent 501
scalar World.node[20].appl.middleware.ExampleService #full_proofs 0
scalar World.node[20].appl.middleware.ExampleService #half_proofs 4
scalar World.node[20].appl.middleware.ExampleService #failed_proofs 0
scalar World.node[20].appl.middleware.ExampleService #loc_proof_send 28
scalar World.node[20].nic.phy80211p busyTime 0.0032534416243654
scalar World.node[20].nic.mac1609_4 ReceivedUnicastPackets 0
scalar World.node[20].nic.mac1609_4 ReceivedBroadcasts 3772
scalar World.node[20].nic.mac1609_4 SentPackets 529
scalar World.node[20].nic.mac1609_4 SentAcknowledgements 0
scalar World.node[20].nic.mac1609_4 SNIRLostPackets 203
scalar World.node[20].nic.mac1609_4 RXTXLostPackets 76
scalar World.node[20].nic.mac1609_4 TotalLostPackets 279
scalar World.node[20].nic.mac1609_4 DroppedPacketsInMac 0
scalar World.node[20].nic.mac1609_4 TooLittleTime 0
scalar World.node[20].nic.mac1609_4 TimesIntoBackoff 535
scalar World.node[20].nic.mac1609_4 SlotsBackoff 4057
scalar World.node[20].nic.mac1609_4 NumInternalContention 0
scalar World.node[20].nic.mac1609_4 totalBusyTime 0.720097439935
scalar World.node[4].appl.middleware.CaService #cam_sent 722
scalar World.node[4].appl.middleware.ExampleService #full_proofs 1
scalar World.node[4].appl.middleware.ExampleService #half_proofs 1
scalar World.node[4].appl.middleware.ExampleService #failed_proofs 1
scalar World.node[4].appl.middleware.ExampleService #loc_proof_send 16
scalar World.node[4].nic.phy80211p busyTime 0.0020501085271318
scalar World.node[4].nic.mac1609_4 ReceivedUnicastPackets 0
scalar World.node[4].nic.mac1609_4 ReceivedBroadcasts 2909
scalar World.node[4].nic.mac1609_4 SentPackets 738
scalar World.node[4].nic.mac1609_4 SentAcknowledgements 0
scalar World.node[4].nic.mac1609_4 SNIRLostPackets 358
scalar World.node[4].nic.mac1609_4 RXTXLostPackets 31
scalar World.node[4].nic.mac1609_4 TotalLostPackets 389
scalar World.node[4].nic.mac1609_4 DroppedPacketsInMac 0
scalar World.node[4].nic.mac1609_4 TooLittleTime 0
scalar World.node[4].nic.mac1609_4 TimesIntoBackoff 739
scalar World.node[4].nic.mac1609_4 SlotsBackoff 5503
scalar World.node[4].nic.mac1609_4 NumInternalContention 0
scalar World.node[4].nic.mac1609_4 totalBusyTime 0.646746013796
scalar World.node[36].appl.middleware.CaService #cam_sent 314
scalar World.node[36].appl.middleware.ExampleService #full_proofs 1
scalar World.node[36].appl.middleware.ExampleService #half_proofs 1
scalar World.node[36].appl.middleware.ExampleService #failed_proofs 0
scalar World.node[36].appl.middleware.ExampleService #loc_proof_send 20
scalar World.node[36].nic.phy80211p busyTime 0.0038502769230769
scalar World.node[36].nic.mac1609_4 ReceivedUnicastPackets 0
scalar World.node[36].nic.mac1609_4 ReceivedBroadcasts 2954
scalar World.node[36].nic.mac1609_4 SentPackets 334
scalar World.node[36].nic.mac1609_4 SentAcknowledgements 0
scalar World.node[36].nic.mac1609_4 SNIRLostPackets 146
scalar World.node[36].nic.mac1609_4 RXTXLostPackets 74
scalar World.node[36].nic.mac1609_4 TotalLostPackets 220
scalar World.node[36].nic.mac1609_4 DroppedPacketsInMac 0
scalar World.node[36].nic.mac1609_4 TooLittleTime 0
scalar World.node[36].nic.mac1609_4 TimesIntoBackoff 335
scalar World.node[36].nic.mac1609_4 SlotsBackoff 2579
scalar World.node[36].nic.mac1609_4 NumInternalContention 0
scalar World.node[36].nic.mac1609_4 totalBusyTime 0.54874269734
scalar World.node[25].appl.middleware.CaService #cam_sent 507
scalar World.node[25].appl.middleware.ExampleService #full_proofs 1
scalar World.node[25].appl.middleware.ExampleService #half_proofs 2
scalar World.node[25].appl.middleware.ExampleService #failed_proofs 0
scalar World.node[25].appl.middleware.ExampleService #loc_proof_send 23
scalar World.node[25].nic.phy80211p busyTime 0.0034835909090909
scalar World.node[25].nic.mac1609_4 ReceivedUnicastPackets 0
scalar World.node[25].nic.mac1609_4 ReceivedBroadcasts 3433
scalar World.node[25].nic.mac1609_4 SentPackets 530
scalar World.node[25].nic.mac1609_4 SentAcknowledgements 0
scalar World.node[25].nic.mac1609_4 SNIRLostPackets 371
scalar World.node[25].nic.mac1609_4 RXTXLostPackets 55
scalar World.node[25].nic.mac1609_4 TotalLostPackets 426
scalar World.node[25].nic.mac1609_4 DroppedPacketsInMac 0
scalar World.node[25].nic.mac1609_4 TooLittleTime 0
scalar World.node[25].nic.mac1609_4 TimesIntoBackoff 531
scalar World.node[25].nic.mac1609_4 SlotsBackoff 3934
scalar World.node[25].nic.mac1609_4 NumInternalContention 0
scalar World.node[25].nic.mac1609_4 totalBusyTime 0.691624567463
scalar World.node[11].appl.middleware.CaService #cam_sent 663
scalar World.node[11].appl.middleware.ExampleService #full_proofs 0
scalar World.node[11].appl.middleware.ExampleService #half_proofs 4
scalar World.node[11].appl.middleware.ExampleService #failed_proofs 0
scalar World.node[11].appl.middleware.ExampleService #loc_proof_send 24
scalar World.node[11].nic.phy80211p busyTime 0.0027061244813278
scalar World.node[11].nic.mac1609_4 ReceivedUnicastPackets 0
scalar World.node[11].nic.mac1609_4 ReceivedBroadcasts 3556
scalar World.node[11].nic.mac1609_4 SentPackets 687
scalar World.node[11].nic.mac1609_4 SentAcknowledgements 0
scalar World.node[11].nic.mac1609_4 SNIRLostPackets 483
scalar World.node[11].nic.mac1609_4 RXTXLostPackets 44
scalar World.node[11].nic.mac1609_4 TotalLostPackets 527
scalar World.node[11].nic.mac1609_4 DroppedPacketsInMac 0
scalar World.node[11].nic.mac1609_4 TooLittleTime 0
scalar World.node[11].nic.mac1609_4 TimesIntoBackoff 690
scalar World.node[11].nic.mac1609_4 SlotsBackoff 5166
scalar World.node[11].nic.mac1609_4 NumInternalContention 0
scalar World.node[11].nic.mac1609_4 totalBusyTime 0.758071504634
scalar World.node[18].appl.middleware.CaService #cam_sent 538
scalar World.node[18].appl.middleware.ExampleService #full_proofs 0
scalar World.node[18].appl.middleware.ExampleService #half_proofs 3
scalar World.node[18].appl.middleware.ExampleService #failed_proofs 0
scalar World.node[18].appl.middleware.ExampleService #loc_proof_send 21
scalar World.node[18].nic.phy80211p busyTime 0.0023588246445497
scalar World.node[18].nic.mac1609_4 ReceivedUnicastPackets 0
scalar World.node[18].nic.mac1609_4 ReceivedBroadcasts 2868
scalar World.node[18].nic.mac1609_4 SentPackets 559
scalar World.node[18].nic.mac1609_4 SentAcknowledgements 0
scalar World.node[18].nic.mac1609_4 SNIRLostPackets 215
scalar World.node[18].nic.mac1609_4 RXTXLostPackets 72
scalar World.node[18].nic.mac1609_4 TotalLostPackets 287
scalar World.node[18].nic.mac1609_4 DroppedPacketsInMac 0
scalar World.node[18].nic.mac1609_4 TooLittleTime 0
scalar World.node[18].nic.mac1609_4 TimesIntoBackoff 559
scalar World.node[18].nic.mac1609_4 SlotsBackoff 4088
scalar World.node[18].nic.mac1609_4 NumInternalContention 0
scalar World.node[18].nic.mac1609_4 totalBusyTime 0.58573328239
scalar World.node[28].appl.middleware.CaService #cam_sent 419
scalar World.node[28].appl.middleware.ExampleService #full_proofs 0
scalar World.node[28].appl.middleware.ExampleService #half_proofs 2
scalar World.node[28].appl.middleware.ExampleService #failed_proofs 0
scalar World.node[28].appl.middleware.ExampleService #loc_proof_send 21
scalar World.node[28].nic.phy80211p busyTime 0.0033499310344827
scalar World.node[28].nic.mac1609_4 ReceivedUnicastPackets 0
scalar World.node[28].nic.mac1609_4 ReceivedBroadcasts 3147
scalar World.node[28].nic.mac1609_4 SentPackets 440
scalar World.node[28].nic.mac1609_4 SentAcknowledgements 0
scalar World.node[28].nic.mac1609_4 SNIRLostPackets 467
scalar World.node[28].nic.mac1609_4 RXTXLostPackets 70
scalar World.node[28].nic.mac1609_4 TotalLostPackets 537
scalar World.node[28].nic.mac1609_4 DroppedPacketsInMac 0
scalar World.node[28].nic.mac1609_4 TooLittleTime 0
scalar World.node[28].nic.mac1609_4 TimesIntoBackoff 442
scalar World.node[28].nic.mac1609_4 SlotsBackoff 3353
scalar World.node[28].nic.mac1609_4 NumInternalContention 0
scalar World.node[28].nic.mac1609_4 totalBusyTime 0.647420147089
scalar World.node[56].appl.middleware.CaService #cam_sent 169
scalar World.node[56].appl.middleware.ExampleService #full_proofs 0
scalar World.node[56].appl.middleware.ExampleService #half_proofs 1
scalar World.node[56].appl.middleware.ExampleService #failed_proofs 0
scalar World.node[56].appl.middleware.ExampleService #loc_proof_send 12
scalar World.node[56].nic.phy80211p busyTime 0.002899
scalar World.node[56].nic.mac1609_4 ReceivedUnicastPackets 0
scalar World.node[56].nic.mac1609_4 ReceivedBroadcasts 1211
scalar World.node[56].nic.mac1609_4 SentPackets 181
scalar World.node[56].nic.mac1609_4 SentAcknowledgements 0
scalar World.node[56].nic.mac1609_4 SNIRLostPackets 90
scalar World.node[56].nic.mac1609_4 RXTXLostPackets 52
scalar World.node[56].nic.mac1609_4 TotalLostPackets 142
scalar World.node[56].nic.mac1609_4 DroppedPacketsInMac 0
scalar World.node[56].nic.mac1609_4 TooLittleTime 0
scalar World.node[56].nic.mac1609_4 TimesIntoBackoff 184
scalar World.node[56].nic.mac1609_4 SlotsBackoff 1385
scalar World.node[56].nic.mac1609_4 NumInternalContention 0
scalar World.node[56].nic.mac1609_4 totalBusyTime 0.23537439939
scalar World.node[5].appl.middleware.CaService #cam_sent 866
scalar World.node[5].appl.middleware.ExampleService #full_proofs 2
scalar World.node[5].appl.middleware.ExampleService #half_proofs 3
scalar World.node[5].appl.middleware.ExampleService #failed_proofs 0
scalar World.node[5].appl.middleware.ExampleService #loc_proof_send 29
scalar World.node[5].nic.phy80211p busyTime 0.0022566666666666
scalar World.node[5].nic.mac1609_4 ReceivedUnicastPackets 0
scalar World.node[5].nic.mac1609_4 ReceivedBroadcasts 3603
scalar World.node[5].nic.mac1609_4 SentPackets 895
scalar World.node[5].nic.mac1609_4 SentAcknowledgements 0
scalar World.node[5].nic.mac1609_4 SNIRLostPackets 256
scalar World.node[5].nic.mac1609_4 RXTXLostPackets 86
scalar World.node[5].nic.mac1609_4 TotalLostPackets 342
scalar World.node[5].nic.mac1609_4 DroppedPacketsInMac 0
scalar World.node[5].nic.mac1609_4 TooLittleTime 0
scalar World.node[5].nic.mac1609_4 TimesIntoBackoff 901
scalar World.node[5].nic.mac1609_4 SlotsBackoff 6535
scalar World.node[5].nic.mac1609_4 NumInternalContention 0
scalar World.node[5].nic.mac1609_4 totalBusyTime 0.762823072209
scalar World.node[68].appl.middleware.CaService #cam_sent 92
scalar World.node[68].appl.middleware.ExampleService #full_proofs 0
scalar World.node[68].appl.middleware.ExampleService #half_proofs 0
scalar World.node[68].appl.middleware.ExampleService #failed_proofs 0
scalar World.node[68].appl.middleware.ExampleService #loc_proof_send 2
scalar World.node[68].nic.phy80211p busyTime 0.00084681481481482
scalar World.node[68].nic.mac1609_4 ReceivedUnicastPackets 0
scalar World.node[68].nic.mac1609_4 ReceivedBroadcasts 131
scalar World.node[68].nic.mac1609_4 SentPackets 94
scalar World.node[68].nic.mac1609_4 SentAcknowledgements 0
scalar World.node[68].nic.mac1609_4 SNIRLostPackets 18
scalar World.node[68].nic.mac1609_4 RXTXLostPackets 8
scalar World.node[68].nic.mac1609_4 TotalLostPackets 26
scalar World.node[68].nic.mac1609_4 DroppedPacketsInMac 0
scalar World.node[68].nic.mac1609_4 TooLittleTime 0
scalar World.node[68].nic.mac1609_4 TimesIntoBackoff 94
scalar World.node[68].nic.mac1609_4 SlotsBackoff 774
scalar World.node[68].nic.mac1609_4 NumInternalContention 0
scalar World.node[68].nic.mac1609_4 totalBusyTime 0.037654
scalar World.node[39].appl.middleware.CaService #cam_sent 424
scalar World.node[39].appl.middleware.ExampleService #full_proofs 1
scalar World.node[39].appl.middleware.ExampleService #half_proofs 2
scalar World.node[39].appl.middleware.ExampleService #failed_proofs 0
scalar World.node[39].appl.middleware.ExampleService #loc_proof_send 21
scalar World.node[39].nic.phy80211p busyTime 0.0032761761006289
scalar World.node[39].nic.mac1609_4 ReceivedUnicastPackets 0
scalar World.node[39].nic.mac1609_4 ReceivedBroadcasts 3050
scalar World.node[39].nic.mac1609_4 SentPackets 445
scalar World.node[39].nic.mac1609_4 SentAcknowledgements 0
scalar World.node[39].nic.mac1609_4 SNIRLostPackets 180
scalar World.node[39].nic.mac1609_4 RXTXLostPackets 70
scalar World.node[39].nic.mac1609_4 TotalLostPackets 250
scalar World.node[39].nic.mac1609_4 DroppedPacketsInMac 0
scalar World.node[39].nic.mac1609_4 TooLittleTime 0
scalar World.node[39].nic.mac1609_4 TimesIntoBackoff 448
scalar World.node[39].nic.mac1609_4 SlotsBackoff 3328
scalar World.node[39].nic.mac1609_4 NumInternalContention 0
scalar World.node[39].nic.mac1609_4 totalBusyTime 0.588435316018
scalar World.node[67].appl.middleware.CaService #cam_sent 172
scalar World.node[67].appl.middleware.ExampleService #full_proofs 0
scalar World.node[67].appl.middleware.ExampleService #half_proofs 0
scalar World.node[67].appl.middleware.ExampleService #failed_proofs 0
scalar World.node[67].appl.middleware.ExampleService #loc_proof_send 2
scalar World.node[67].nic.phy80211p busyTime 0.00052533333333333
scalar World.node[67].nic.mac1609_4 ReceivedUnicastPackets 0
scalar World.node[67].nic.mac1609_4 ReceivedBroadcasts 133
scalar World.node[67].nic.mac1609_4 SentPackets 174
scalar World.node[67].nic.mac1609_4 SentAcknowledgements 0
scalar World.node[67].nic.mac1609_4 SNIRLostPackets 33
scalar World.node[67].nic.mac1609_4 RXTXLostPackets 0
scalar World.node[67].nic.mac1609_4 TotalLostPackets 33
scalar World.node[67].nic.mac1609_4 DroppedPacketsInMac 0
scalar World.node[67].nic.mac1609_4 TooLittleTime 0
scalar World.node[67].nic.mac1609_4 TimesIntoBackoff 175
scalar World.node[67].nic.mac1609_4 SlotsBackoff 1373
scalar World.node[67].nic.mac1609_4 NumInternalContention 0
scalar World.node[67].nic.mac1609_4 totalBusyTime 0.055238
scalar World.node[57].appl.middleware.CaService #cam_sent 236
scalar World.node[57].appl.middleware.ExampleService #full_proofs 1
scalar World.node[57].appl.middleware.ExampleService #half_proofs 1
scalar World.node[57].appl.middleware.ExampleService #failed_proofs 0
scalar World.node[57].appl.middleware.ExampleService #loc_proof_send 20
scalar World.node[57].nic.phy80211p busyTime 0.0053436296296296
scalar World.node[57].nic.mac1609_4 ReceivedUnicastPackets 0
scalar World.node[57].nic.mac1609_4 ReceivedBroadcasts 3356
scalar World.node[57].nic.mac1609_4 SentPackets 256
scalar World.node[57].nic.mac1609_4 SentAcknowledgements 0
scalar World.node[57].nic.mac1609_4 SNIRLostPackets 223
scalar World.node[57].nic.mac1609_4 RXTXLostPackets 63
scalar World.node[57].nic.mac1609_4 TotalLostPackets 286
scalar World.node[57].nic.mac1609_4 DroppedPacketsInMac 0
scalar World.node[57].nic.mac1609_4 TooLittleTime 0
scalar World.node[57].nic.mac1609_4 TimesIntoBackoff 257
scalar World.node[57].nic.mac1609_4 SlotsBackoff 1927
scalar World.node[57].nic.mac1609_4 NumInternalContention 0
scalar World.node[57].nic.mac1609_4 totalBusyTime 0.610992610493
scalar World.node[32].appl.middleware.CaService #cam_sent 602
scalar World.node[32].appl.middleware.ExampleService #full_proofs 0
scalar World.node[32].appl.middleware.ExampleService #half_proofs 4
scalar World.node[32].appl.middleware.ExampleService #failed_proofs 0
scalar World.node[32].appl.middleware.ExampleService #loc_proof_send 29
scalar World.node[32].nic.phy80211p busyTime 0.0030800758293838
scalar World.node[32].nic.mac1609_4 ReceivedUnicastPackets 0
scalar World.node[32].nic.mac1609_4 ReceivedBroadcasts 3737
scalar World.node[32].nic.mac1609_4 SentPackets 631
scalar World.node[32].nic.mac1609_4 SentAcknowledgements 0
scalar World.node[32].nic.mac1609_4 SNIRLostPackets 301
scalar World.node[32].nic.mac1609_4 RXTXLostPackets 80
scalar World.node[32].nic.mac1609_4 TotalLostPackets 381
scalar World.node[32].nic.mac1609_4 DroppedPacketsInMac 0
scalar World.node[32].nic.mac1609_4 TooLittleTime 0
scalar World.node[32].nic.mac1609_4 TimesIntoBackoff 634
scalar World.node[32].nic.mac1609_4 SlotsBackoff 4783
scalar World.node[32].nic.mac1609_4 NumInternalContention 0
scalar World.node[32].nic.mac1609_4 totalBusyTime 0.743535945097
scalar World.node[79].appl.middleware.CaService #cam_sent 88
scalar World.node[79].appl.middleware.ExampleService #full_proofs 0
scalar World.node[79].appl.middleware.ExampleService #half_proofs 0
scalar World.node[79].appl.middleware.ExampleService #failed_proofs 0
scalar World.node[79].appl.middleware.ExampleService #loc_proof_send 5
scalar World.node[79].nic.phy80211p busyTime 0.0046698461538461
scalar World.node[79].nic.mac1609_4 ReceivedUnicastPackets 0
scalar World.node[79].nic.mac1609_4 ReceivedBroadcasts 558
scalar World.node[79].nic.mac1609_4 SentPackets 93
scalar World.node[79].nic.mac1609_4 SentAcknowledgements 0
scalar World.node[79].nic.mac1609_4 SNIRLostPackets 204
scalar World.node[79].nic.mac1609_4 RXTXLostPackets 6
scalar World.node[79].nic.mac1609_4 TotalLostPackets 210
scalar World.node[79].nic.mac1609_4 DroppedPacketsInMac 0
scalar World.node[79].nic.mac1609_4 TooLittleTime 0
scalar World.node[79].nic.mac1609_4 TimesIntoBackoff 93
scalar World.node[79].nic.mac1609_4 SlotsBackoff 795
scalar World.node[79].nic.mac1609_4 NumInternalContention 0
scalar World.node[79].nic.mac1609_4 totalBusyTime 0.132749029891
scalar World.node[23].appl.middleware.CaService #cam_sent 583
scalar World.node[23].appl.middleware.ExampleService #full_proofs 0
scalar World.node[23].appl.middleware.ExampleService #half_proofs 3
scalar World.node[23].appl.middleware.ExampleService #failed_proofs 1
scalar World.node[23].appl.middleware.ExampleService #loc_proof_send 36
scalar World.node[23].nic.phy80211p busyTime 0.0031232712550607
scalar World.node[23].nic.mac1609_4 ReceivedUnicastPackets 0
scalar World.node[23].nic.mac1609_4 ReceivedBroadcasts 4534
scalar World.node[23].nic.mac1609_4 SentPackets 619
scalar World.node[23].nic.mac1609_4 SentAcknowledgements 0
scalar World.node[23].nic.mac1609_4 SNIRLostPackets 252
scalar World.node[23].nic.mac1609_4 RXTXLostPackets 133
scalar World.node[23].nic.mac1609_4 TotalLostPackets 385
scalar World.node[23].nic.mac1609_4 DroppedPacketsInMac 0
scalar World.node[23].nic.mac1609_4 TooLittleTime 0
scalar World.node[23].nic.mac1609_4 TimesIntoBackoff 625
scalar World.node[23].nic.mac1609_4 SlotsBackoff 4736
scalar World.node[23].nic.mac1609_4 NumInternalContention 0
scalar World.node[23].nic.mac1609_4 totalBusyTime 0.865051855459
scalar World.node[52].appl.middleware.CaService #cam_sent 461
scalar World.node[52].appl.middleware.ExampleService #full_proofs 0
scalar World.node[52].appl.middleware.ExampleService #half_proofs 2
scalar World.node[52].appl.middleware.ExampleService #failed_proofs 0
scalar World.node[52].appl.middleware.ExampleService #loc_proof_send 26
scalar World.node[52].nic.phy80211p busyTime 0.004128951048951
scalar World.node[52].nic.mac1609_4 ReceivedUnicastPackets 0
scalar World.node[52].nic.mac1609_4 ReceivedBroadcasts 3357
scalar World.node[52].nic.mac1609_4 SentPackets 487
scalar World.node[52].nic.mac1609_4 SentAcknowledgements 0
scalar World.node[52].nic.mac1609_4 SNIRLostPackets 310
scalar World.node[52].nic.mac1609_4 RXTXLostPackets 94
scalar World.node[52].nic.mac1609_4 TotalLostPackets 404
scalar World.node[52].nic.mac1609_4 DroppedPacketsInMac 0
scalar World.node[52].nic.mac1609_4 TooLittleTime 0
scalar World.node[52].nic.mac1609_4 TimesIntoBackoff 495
scalar World.node[52].nic.mac1609_4 SlotsBackoff 3621
scalar World.node[52].nic.mac1609_4 NumInternalContention 0
scalar World.node[52].nic.mac1609_4 totalBusyTime 0.663056201186
scalar World.node[37].appl.middleware.CaService #cam_sent 564
scalar World.node[37].appl.middleware.ExampleService #full_proofs 0
scalar World.node[37].appl.middleware.ExampleService #half_proofs 3
scalar World.node[37].appl.middleware.ExampleService #failed_proofs 0
scalar World.node[37].appl.middleware.ExampleService #loc_proof_send 24
scalar World.node[37].nic.phy80211p busyTime 0.0027255323383084
scalar World.node[37].nic.mac1609_4 ReceivedUnicastPackets 0
scalar World.node[37].nic.mac1609_4 ReceivedBroadcasts 3125
scalar World.node[37].nic.mac1609_4 SentPackets 588
scalar World.node[37].nic.mac1609_4 SentAcknowledgements 0
scalar World.node[37].nic.mac1609_4 SNIRLostPackets 283
scalar World.node[37].nic.mac1609_4 RXTXLostPackets 75
scalar World.node[37].nic.mac1609_4 TotalLostPackets 358
scalar World.node[37].nic.mac1609_4 DroppedPacketsInMac 0
scalar World.node[37].nic.mac1609_4 TooLittleTime 0
scalar World.node[37].nic.mac1609_4 TimesIntoBackoff 592
scalar World.node[37].nic.mac1609_4 SlotsBackoff 4285
scalar World.node[37].nic.mac1609_4 NumInternalContention 0
scalar World.node[37].nic.mac1609_4 totalBusyTime 0.634292624883
scalar World.node[43].appl.middleware.CaService #cam_sent 490
scalar World.node[43].appl.middleware.ExampleService #full_proofs 1
scalar World.node[43].appl.middleware.ExampleService #half_proofs 2
scalar World.node[43].appl.middleware.ExampleService #failed_proofs 0
scalar World.node[43].appl.middleware.ExampleService #loc_proof_send 24
scalar World.node[43].nic.phy80211p busyTime 0.0029337458563536
scalar World.node[43].nic.mac1609_4 ReceivedUnicastPackets 0
scalar World.node[43].nic.mac1609_4 ReceivedBroadcasts 2885
scalar World.node[43].nic.mac1609_4 SentPackets 514
scalar World.node[43].nic.mac1609_4 SentAcknowledgements 0
scalar World.node[43].nic.mac1609_4 SNIRLostPackets 419
scalar World.node[43].nic.mac1609_4 RXTXLostPackets 54
scalar World.node[43].nic.mac1609_4 TotalLostPackets 473
scalar World.node[43].nic.mac1609_4 DroppedPacketsInMac 0
scalar World.node[43].nic.mac1609_4 TooLittleTime 0
scalar World.node[43].nic.mac1609_4 TimesIntoBackoff 518
scalar World.node[43].nic.mac1609_4 SlotsBackoff 4079
scalar World.node[43].nic.mac1609_4 NumInternalContention 0
scalar World.node[43].nic.mac1609_4 totalBusyTime 0.605490875035
scalar World.node[58].appl.middleware.CaService #cam_sent 354
scalar World.node[58].appl.middleware.ExampleService #full_proofs 0
scalar World.node[58].appl.middleware.ExampleService #half_proofs 2
scalar World.node[58].appl.middleware.ExampleService #failed_proofs 0
scalar World.node[58].appl.middleware.ExampleService #loc_proof_send 17
scalar World.node[58].nic.phy80211p busyTime 0.0029740854700854
scalar World.node[58].nic.mac1609_4 ReceivedUnicastPackets 0
scalar World.node[58].nic.mac1609_4 ReceivedBroadcasts 2004
scalar World.node[58].nic.mac1609_4 SentPackets 371
scalar World.node[58].nic.mac1609_4 SentAcknowledgements 0
scalar World.node[58].nic.mac1609_4 SNIRLostPackets 160
scalar World.node[58].nic.mac1609_4 RXTXLostPackets 70
scalar World.node[58].nic.mac1609_4 TotalLostPackets 230
scalar World.node[58].nic.mac1609_4 DroppedPacketsInMac 0
scalar World.node[58].nic.mac1609_4 TooLittleTime 0
scalar World.node[58].nic.mac1609_4 TimesIntoBackoff 378
scalar World.node[58].nic.mac1609_4 SlotsBackoff 2886
scalar World.node[58].nic.mac1609_4 NumInternalContention 0
scalar World.node[58].nic.mac1609_4 totalBusyTime 0.405076318196
scalar World.node[17].appl.middleware.CaService #cam_sent 773
scalar World.node[17].appl.middleware.ExampleService #full_proofs 1
scalar World.node[17].appl.middleware.ExampleService #half_proofs 4
scalar World.node[17].appl.middleware.ExampleService #failed_proofs 0
scalar World.node[17].appl.middleware.ExampleService #loc_proof_send 47
scalar World.node[17].nic.phy80211p busyTime 0.0038008108108106
scalar World.node[17].nic.mac1609_4 ReceivedUnicastPackets 0
scalar World.node[17].nic.mac1609_4 ReceivedBroadcasts 6546
scalar World.node[17].nic.mac1609_4 SentPackets 820
scalar World.node[17].nic.mac1609_4 SentAcknowledgements 0
scalar World.node[17].nic.mac1609_4 SNIRLostPackets 429
scalar World.node[17].nic.mac1609_4 RXTXLostPackets 188
scalar World.node[17].nic.mac1609_4 TotalLostPackets 617
scalar World.node[17].nic.mac1609_4 DroppedPacketsInMac 0
scalar World.node[17].nic.mac1609_4 TooLittleTime 0
scalar World.node[17].nic.mac1609_4 TimesIntoBackoff 829
scalar World.node[17].nic.mac1609_4 SlotsBackoff 6142
scalar World.node[17].nic.mac1609_4 NumInternalContention 0
scalar World.node[17].nic.mac1609_4 totalBusyTime 1.244829269782
scalar World.node[59].appl.middleware.CaService #cam_sent 342
scalar World.node[59].appl.middleware.ExampleService #full_proofs 0
scalar World.node[59].appl.middleware.ExampleService #half_proofs 2
scalar World.node[59].appl.middleware.ExampleService #failed_proofs 0
scalar World.node[59].appl.middleware.ExampleService #loc_proof_send 18
scalar World.node[59].nic.phy80211p busyTime 0.0034115478260869
scalar World.node[59].nic.mac1609_4 ReceivedUnicastPackets 0
scalar World.node[59].nic.mac1609_4 ReceivedBroadcasts 2231
scalar World.node[59].nic.mac1609_4 SentPackets 360
scalar World.node[59].nic.mac1609_4 SentAcknowledgements 0
scalar World.node[59].nic.mac1609_4 SNIRLostPackets 220
scalar World.node[59].nic.mac1609_4 RXTXLostPackets 39
scalar World.node[59].nic.mac1609_4 TotalLostPackets 259
scalar World.node[59].nic.mac1609_4 DroppedPacketsInMac 0
scalar World.node[59].nic.mac1609_4 TooLittleTime 0
scalar World.node[59].nic.mac1609_4 TimesIntoBackoff 362
scalar World.node[59].nic.mac1609_4 SlotsBackoff 2808
scalar World.node[59].nic.mac1609_4 NumInternalContention 0
scalar World.node[59].nic.mac1609_4 totalBusyTime 0.443153680067
scalar World.node[47].appl.middleware.CaService #cam_sent 462
scalar World.node[47].appl.middleware.ExampleService #full_proofs 0
scalar World.node[47].appl.middleware.ExampleService #half_proofs 3
scalar World.node[47].appl.middleware.ExampleService #failed_proofs 0
scalar World.node[47].appl.middleware.ExampleService #loc_proof_send 23
scalar World.node[47].nic.phy80211p busyTime 0.003505063583815
scalar World.node[47].nic.mac1609_4 ReceivedUnicastPackets 0
scalar World.node[47].nic.mac1609_4 ReceivedBroadcasts 3442
scalar World.node[47].nic.mac1609_4 SentPackets 485
scalar World.node[47].nic.mac1609_4 SentAcknowledgements 0
scalar World.node[47].nic.mac1609_4 SNIRLostPackets 330
scalar World.node[47].nic.mac1609_4 RXTXLostPackets 50
scalar World.node[47].nic.mac1609_4 TotalLostPackets 380
scalar World.node[47].nic.mac1609_4 DroppedPacketsInMac 0
scalar World.node[47].nic.mac1609_4 TooLittleTime 0
scalar World.node[47].nic.mac1609_4 TimesIntoBackoff 485
scalar World.node[47].nic.mac1609_4 SlotsBackoff 3501
scalar World.node[47].nic.mac1609_4 NumInternalContention 0
scalar World.node[47].nic.mac1609_4 totalBusyTime 0.675229107176
scalar World.node[49].appl.middleware.CaService #cam_sent 506
scalar World.node[49].appl.middleware.ExampleService #full_proofs 0
scalar World.node[49].appl.middleware.ExampleService #half_proofs 2
scalar World.node[49].appl.middleware.ExampleService #failed_proofs 0
scalar World.node[49].appl.middleware.ExampleService #loc_proof_send 28
scalar World.node[49].nic.phy80211p busyTime 0.0038416568047337
scalar World.node[49].nic.mac1609_4 ReceivedUnicastPackets 0
scalar World.node[49].nic.mac1609_4 ReceivedBroadcasts 3697
scalar World.node[49].nic.mac1609_4 SentPackets 534
scalar World.node[49].nic.mac1609_4 SentAcknowledgements 0
scalar World.node[49].nic.mac1609_4 SNIRLostPackets 352
scalar World.node[49].nic.mac1609_4 RXTXLostPackets 47
scalar World.node[49].nic.mac1609_4 TotalLostPackets 399
scalar World.node[49].nic.mac1609_4 DroppedPacketsInMac 0
scalar World.node[49].nic.mac1609_4 TooLittleTime 0
scalar World.node[49].nic.mac1609_4 TimesIntoBackoff 536
scalar World.node[49].nic.mac1609_4 SlotsBackoff 4045
scalar World.node[49].nic.mac1609_4 NumInternalContention 0
scalar World.node[49].nic.mac1609_4 totalBusyTime 0.72387959284
scalar World.node[55].appl.middleware.CaService #cam_sent 408
scalar World.node[55].appl.middleware.ExampleService #full_proofs 0
scalar World.node[55].appl.middleware.ExampleService #half_proofs 2
scalar World.node[55].appl.middleware.ExampleService #failed_proofs 0
scalar World.node[55].appl.middleware.ExampleService #loc_proof_send 24
scalar World.node[55].nic.phy80211p busyTime 0.0038412799999999
scalar World.node[55].nic.mac1609_4 ReceivedUnicastPackets 0
scalar World.node[55].nic.mac1609_4 ReceivedBroadcasts 3356
scalar World.node[55].nic.mac1609_4 SentPackets 432
scalar World.node[55].nic.mac1609_4 SentAcknowledgements 0
scalar World.node[55].nic.mac1609_4 SNIRLostPackets 227
scalar World.node[55].nic.mac1609_4 RXTXLostPackets 102
scalar World.node[55].nic.mac1609_4 TotalLostPackets 329
scalar World.node[55].nic.mac1609_4 DroppedPacketsInMac 0
scalar World.node[55].nic.mac1609_4 TooLittleTime 0
scalar World.node[55].nic.mac1609_4 TimesIntoBackoff 438
scalar World.node[55].nic.mac1609_4 SlotsBackoff 3191
scalar World.node[55].nic.mac1609_4 NumInternalContention 0
scalar World.node[55].nic.mac1609_4 totalBusyTime 0.638504691884
scalar World.node[41].appl.middleware.CaService #cam_sent 591
scalar World.node[41].appl.middleware.ExampleService #full_proofs 1
scalar World.node[41].appl.middleware.ExampleService #half_proofs 2
scalar World.node[41].appl.middleware.ExampleService #failed_proofs 1
scalar World.node[41].appl.middleware.ExampleService #loc_proof_send 27
scalar World.node[41].nic.phy80211p busyTime 0.0029013708920187
scalar World.node[41].nic.mac1609_4 ReceivedUnicastPackets 0
scalar World.node[41].nic.mac1609_4 ReceivedBroadcasts 3385
scalar World.node[41].nic.mac1609_4 SentPackets 618
scalar World.node[41].nic.mac1609_4 SentAcknowledgements 0
scalar World.node[41].nic.mac1609_4 SNIRLostPackets 457
scalar World.node[41].nic.mac1609_4 RXTXLostPackets 112
scalar World.node[41].nic.mac1609_4 TotalLostPackets 569
scalar World.node[41].nic.mac1609_4 DroppedPacketsInMac 0
scalar World.node[41].nic.mac1609_4 TooLittleTime 0
scalar World.node[41].nic.mac1609_4 TimesIntoBackoff 624
scalar World.node[41].nic.mac1609_4 SlotsBackoff 4817
scalar World.node[41].nic.mac1609_4 NumInternalContention 0
scalar World.node[41].nic.mac1609_4 totalBusyTime 0.710522664778
scalar World.node[34].appl.middleware.CaService #cam_sent 685
scalar World.node[34].appl.middleware.ExampleService #full_proofs 0
scalar World.node[34].appl.middleware.ExampleService #half_proofs 4
scalar World.node[34].appl.middleware.ExampleService #failed_proofs 0
scalar World.node[34].appl.middleware.ExampleService #loc_proof_send 40
scalar World.node[34].nic.phy80211p busyTime 0.004429387096774
scalar World.node[34].nic.mac1609_4 ReceivedUnicastPackets 0
scalar World.node[34].nic.mac1609_4 ReceivedBroadcasts 6341
scalar World.node[34].nic.mac1609_4 SentPackets 725
scalar World.node[34].nic.mac1609_4 SentAcknowledgements 0
scalar World.node[34].nic.mac1609_4 SNIRLostPackets 477
scalar World.node[34].nic.mac1609_4 RXTXLostPackets 165
scalar World.node[34].nic.mac1609_4 TotalLostPackets 642
scalar World.node[34].nic.mac1609_4 DroppedPacketsInMac 0
scalar World.node[34].nic.mac1609_4 TooLittleTime 0
scalar World.node[34].nic.mac1609_4 TimesIntoBackoff 773
scalar World.node[34].nic.mac1609_4 SlotsBackoff 5628
scalar World.node[34].nic.mac1609_4 NumInternalContention 0
scalar World.node[34].nic.mac1609_4 totalBusyTime 1.203432066771
scalar World.node[60].appl.middleware.CaService #cam_sent 337
scalar World.node[60].appl.middleware.ExampleService #full_proofs 0
scalar World.node[60].appl.middleware.ExampleService #half_proofs 2
scalar World.node[60].appl.middleware.ExampleService #failed_proofs 0
scalar World.node[60].appl.middleware.ExampleService #loc_proof_send 20
scalar World.node[60].nic.phy80211p busyTime 0.0040800579710144
scalar World.node[60].nic.mac1609_4 ReceivedUnicastPackets 0
scalar World.node[60].nic.mac1609_4 ReceivedBroadcasts 3100
scalar World.node[60].nic.mac1609_4 SentPackets 357
scalar World.node[60].nic.mac1609_4 SentAcknowledgements 0
scalar World.node[60].nic.mac1609_4 SNIRLostPackets 401
scalar World.node[60].nic.mac1609_4 RXTXLostPackets 55
scalar World.node[60].nic.mac1609_4 TotalLostPackets 456
scalar World.node[60].nic.mac1609_4 DroppedPacketsInMac 0
scalar World.node[60].nic.mac1609_4 TooLittleTime 0
scalar World.node[60].nic.mac1609_4 TimesIntoBackoff 357
scalar World.node[60].nic.mac1609_4 SlotsBackoff 2817
scalar World.node[60].nic.mac1609_4 NumInternalContention 0
scalar World.node[60].nic.mac1609_4 totalBusyTime 0.610861235452
scalar World.node[42].appl.middleware.CaService #cam_sent 413
scalar World.node[42].appl.middleware.ExampleService #full_proofs 0
scalar World.node[42].appl.middleware.ExampleService #half_proofs 4
scalar World.node[42].appl.middleware.ExampleService #failed_proofs 0
scalar World.node[42].appl.middleware.ExampleService #loc_proof_send 36
scalar World.node[42].nic.phy80211p busyTime 0.0035393027522935
scalar World.node[42].nic.mac1609_4 ReceivedUnicastPackets 0
scalar World.node[42].nic.mac1609_4 ReceivedBroadcasts 4312
scalar World.node[42].nic.mac1609_4 SentPackets 449
scalar World.node[42].nic.mac1609_4 SentAcknowledgements 0
scalar World.node[42].nic.mac1609_4 SNIRLostPackets 473
scalar World.node[42].nic.mac1609_4 RXTXLostPackets 124
scalar World.node[42].nic.mac1609_4 TotalLostPackets 597
scalar World.node[42].nic.mac1609_4 DroppedPacketsInMac 0
scalar World.node[42].nic.mac1609_4 TooLittleTime 0
scalar World.node[42].nic.mac1609_4 TimesIntoBackoff 450
scalar World.node[42].nic.mac1609_4 SlotsBackoff 3174
scalar World.node[42].nic.mac1609_4 NumInternalContention 0
scalar World.node[42].nic.mac1609_4 totalBusyTime 0.835277104172
scalar World.node[72].appl.middleware.CaService #cam_sent 284
scalar World.node[72].appl.middleware.ExampleService #full_proofs 0
scalar World.node[72].appl.middleware.ExampleService #half_proofs 1
scalar World.node[72].appl.middleware.ExampleService #failed_proofs 0
scalar World.node[72].appl.middleware.ExampleService #loc_proof_send 19
scalar World.node[72].nic.phy80211p busyTime 0.0044653076923076
scalar World.node[72].nic.mac1609_4 ReceivedUnicastPackets 0
scalar World.node[72].nic.mac1609_4 ReceivedBroadcasts 2702
scalar World.node[72].nic.mac1609_4 SentPackets 303
scalar World.node[72].nic.mac1609_4 SentAcknowledgements 0
scalar World.node[72].nic.mac1609_4 SNIRLostPackets 180
scalar World.node[72].nic.mac1609_4 RXTXLostPackets 74
scalar World.node[72].nic.mac1609_4 TotalLostPackets 254
scalar World.node[72].nic.mac1609_4 DroppedPacketsInMac 0
scalar World.node[72].nic.mac1609_4 TooLittleTime 0
scalar World.node[72].nic.mac1609_4 TimesIntoBackoff 305
scalar World.node[72].nic.mac1609_4 SlotsBackoff 2345
scalar World.node[72].nic.mac1609_4 NumInternalContention 0
scalar World.node[72].nic.mac1609_4 totalBusyTime 0.506943154636
scalar World.node[29].appl.middleware.CaService #cam_sent 752
scalar World.node[29].appl.middleware.ExampleService #full_proofs 0
scalar World.node[29].appl.middleware.ExampleService #half_proofs 4
scalar World.node[29].appl.middleware.ExampleService #failed_proofs 1
scalar World.node[29].appl.middleware.ExampleService #loc_proof_send 39
scalar World.node[29].nic.phy80211p busyTime 0.0033019354838709
scalar World.node[29].nic.mac1609_4 ReceivedUnicastPackets 0
scalar World.node[29].nic.mac1609_4 ReceivedBroadcasts 5249
scalar World.node[29].nic.mac1609_4 SentPackets 791
scalar World.node[29].nic.mac1609_4 SentAcknowledgements 0
scalar World.node[29].nic.mac1609_4 SNIRLostPackets 485
scalar World.node[29].nic.mac1609_4 RXTXLostPackets 92
scalar World.node[29].nic.mac1609_4 TotalLostPackets 577
scalar World.node[29].nic.mac1609_4 DroppedPacketsInMac 0
scalar World.node[29].nic.mac1609_4 TooLittleTime 0
scalar World.node[29].nic.mac1609_4 TimesIntoBackoff 798
scalar World.node[29].nic.mac1609_4 SlotsBackoff 5907
scalar World.node[29].nic.mac1609_4 NumInternalContention 0
scalar World.node[29].nic.mac1609_4 totalBusyTime 1.03602375043
scalar World.node[46].appl.middleware.CaService #cam_sent 548
scalar World.node[46].appl.middleware.ExampleService #full_proofs 0
scalar World.node[46].appl.middleware.ExampleService #half_proofs 3
scalar World.node[46].appl.middleware.ExampleService #failed_proofs 0
scalar World.node[46].appl.middleware.ExampleService #loc_proof_send 39
scalar World.node[46].nic.phy80211p busyTime 0.004676125560538
scalar World.node[46].nic.mac1609_4 ReceivedUnicastPackets 0
scalar World.node[46].nic.mac1609_4 ReceivedBroadcasts 5907
scalar World.node[46].nic.mac1609_4 SentPackets 587
scalar World.node[46].nic.mac1609_4 SentAcknowledgements 0
scalar World.node[46].nic.mac1609_4 SNIRLostPackets 573
scalar World.node[46].nic.mac1609_4 RXTXLostPackets 151
scalar World.node[46].nic.mac1609_4 TotalLostPackets 724
scalar World.node[46].nic.mac1609_4 DroppedPacketsInMac 0
scalar World.node[46].nic.mac1609_4 TooLittleTime 0
scalar World.node[46].nic.mac1609_4 TimesIntoBackoff 594
scalar World.node[46].nic.mac1609_4 SlotsBackoff 4420
scalar World.node[46].nic.mac1609_4 NumInternalContention 0
scalar World.node[46].nic.mac1609_4 totalBusyTime 1.118301466099
scalar World.node[51].appl.middleware.CaService #cam_sent 552
scalar World.node[51].appl.middleware.ExampleService #full_proofs 0
scalar World.node[51].appl.middleware.ExampleService #half_proofs 3
scalar World.node[51].appl.middleware.ExampleService #failed_proofs 0
scalar World.node[51].appl.middleware.ExampleService #loc_proof_send 31
scalar World.node[51].nic.phy80211p busyTime 0.0046451262135922
scalar World.node[51].nic.mac1609_4 ReceivedUnicastPackets 0
scalar World.node[51].nic.mac1609_4 ReceivedBroadcasts 5373
scalar World.node[51].nic.mac1609_4 SentPackets 583
scalar World.node[51].nic.mac1609_4 SentAcknowledgements 0
scalar World.node[51].nic.mac1609_4 SNIRLostPackets 573
scalar World.node[51].nic.mac1609_4 RXTXLostPackets 132
scalar World.node[51].nic.mac1609_4 TotalLostPackets 705
scalar World.node[51].nic.mac1609_4 DroppedPacketsInMac 0
scalar World.node[51].nic.mac1609_4 TooLittleTime 0
scalar World.node[51].nic.mac1609_4 TimesIntoBackoff 586
scalar World.node[51].nic.mac1609_4 SlotsBackoff 4409
scalar World.node[51].nic.mac1609_4 NumInternalContention 0
scalar World.node[51].nic.mac1609_4 totalBusyTime 1.031794991427
scalar World.node[81].appl.middleware.CaService #cam_sent 229
scalar World.node[81].appl.middleware.ExampleService #full_proofs 0
scalar World.node[81].appl.middleware.ExampleService #half_proofs 0
scalar World.node[81].appl.middleware.ExampleService #failed_proofs 1
scalar World.node[81].appl.middleware.ExampleService #loc_proof_send 13
scalar World.node[81].nic.phy80211p busyTime 0.0039052584269662
scalar World.node[81].nic.mac1609_4 ReceivedUnicastPackets 0
scalar World.node[81].nic.mac1609_4 ReceivedBroadcasts 2026
scalar World.node[81].nic.mac1609_4 SentPackets 242
scalar World.node[81].nic.mac1609_4 SentAcknowledgements 0
scalar World.node[81].nic.mac1609_4 SNIRLostPackets 134
scalar World.node[81].nic.mac1609_4 RXTXLostPackets 46
scalar World.node[81].nic.mac1609_4 TotalLostPackets 180
scalar World.node[81].nic.mac1609_4 DroppedPacketsInMac 0
scalar World.node[81].nic.mac1609_4 TooLittleTime 0
scalar World.node[81].nic.mac1609_4 TimesIntoBackoff 242
scalar World.node[81].nic.mac1609_4 SlotsBackoff 1706
scalar World.node[81].nic.mac1609_4 NumInternalContention 0
scalar World.node[81].nic.mac1609_4 totalBusyTime 0.382369136552
scalar World.node[78].appl.middleware.CaService #cam_sent 307
scalar World.node[78].appl.middleware.ExampleService #full_proofs 0
scalar World.node[78].appl.middleware.ExampleService #half_proofs 1
scalar World.node[78].appl.middleware.ExampleService #failed_proofs 0
scalar World.node[78].appl.middleware.ExampleService #loc_proof_send 18
scalar World.node[78].nic.phy80211p busyTime 0.0045737981651376
scalar World.node[78].nic.mac1609_4 ReceivedUnicastPackets 0
scalar World.node[78].nic.mac1609_4 ReceivedBroadcasts 2724
scalar World.node[78].nic.mac1609_4 SentPackets 325
scalar World.node[78].nic.mac1609_4 SentAcknowledgements 0
scalar World.node[78].nic.mac1609_4 SNIRLostPackets 380
scalar World.node[78].nic.mac1609_4 RXTXLostPackets 99
scalar World.node[78].nic.mac1609_4 TotalLostPackets 479
scalar World.node[78].nic.mac1609_4 DroppedPacketsInMac 0
scalar World.node[78].nic.mac1609_4 TooLittleTime 0
scalar World.node[78].nic.mac1609_4 TimesIntoBackoff 327
scalar World.node[78].nic.mac1609_4 SlotsBackoff 2451
scalar World.node[78].nic.mac1609_4 NumInternalContention 0
scalar World.node[78].nic.mac1609_4 totalBusyTime 0.538946934289
scalar World.node[44].appl.middleware.CaService #cam_sent 630
scalar World.node[44].appl.middleware.ExampleService #full_proofs 1
scalar World.node[44].appl.middleware.ExampleService #half_proofs 2
scalar World.node[44].appl.middleware.ExampleService #failed_proofs 1
scalar World.node[44].appl.middleware.ExampleService #loc_proof_send 49
scalar World.node[44].nic.phy80211p busyTime 0.0047902879377429
scalar World.node[44].nic.mac1609_4 ReceivedUnicastPackets 0
scalar World.node[44].nic.mac1609_4 ReceivedBroadcasts 7178
scalar World.node[44].nic.mac1609_4 SentPackets 679
scalar World.node[44].nic.mac1609_4 SentAcknowledgements 0
scalar World.node[44].nic.mac1609_4 SNIRLostPackets 499
scalar World.node[44].nic.mac1609_4 RXTXLostPackets 127
scalar World.node[44].nic.mac1609_4 TotalLostPackets 626
scalar World.node[44].nic.mac1609_4 DroppedPacketsInMac 0
scalar World.node[44].nic.mac1609_4 TooLittleTime 0
scalar World.node[44].nic.mac1609_4 TimesIntoBackoff 685
scalar World.node[44].nic.mac1609_4 SlotsBackoff 5121
scalar World.node[44].nic.mac1609_4 NumInternalContention 0
scalar World.node[44].nic.mac1609_4 totalBusyTime 1.319532403846
scalar World.node[65].appl.middleware.CaService #cam_sent 466
scalar World.node[65].appl.middleware.ExampleService #full_proofs 0
scalar World.node[65].appl.middleware.ExampleService #half_proofs 2
scalar World.node[65].appl.middleware.ExampleService #failed_proofs 0
scalar World.node[65].appl.middleware.ExampleService #loc_proof_send 30
scalar World.node[65].nic.phy80211p busyTime 0.0050450454545454
scalar World.node[65].nic.mac1609_4 ReceivedUnicastPackets 0
scalar World.node[65].nic.mac1609_4 ReceivedBroadcasts 4781
scalar World.node[65].nic.mac1609_4 SentPackets 496
scalar World.node[65].nic.mac1609_4 SentAcknowledgements 0
scalar World.node[65].nic.mac1609_4 SNIRLostPackets 756
scalar World.node[65].nic.mac1609_4 RXTXLostPackets 60
scalar World.node[65].nic.mac1609_4 TotalLostPackets 816
scalar World.node[65].nic.mac1609_4 DroppedPacketsInMac 0
scalar World.node[65].nic.mac1609_4 TooLittleTime 0
scalar World.node[65].nic.mac1609_4 TimesIntoBackoff 496
scalar World.node[65].nic.mac1609_4 SlotsBackoff 3837
scalar World.node[65].nic.mac1609_4 NumInternalContention 0
scalar World.node[65].nic.mac1609_4 totalBusyTime 0.952168404758
scalar World.node[66].appl.middleware.CaService #cam_sent 516
scalar World.node[66].appl.middleware.ExampleService #full_proofs 0
scalar World.node[66].appl.middleware.ExampleService #half_proofs 1
scalar World.node[66].appl.middleware.ExampleService #failed_proofs 1
scalar World.node[66].appl.middleware.ExampleService #loc_proof_send 35
scalar World.node[66].nic.phy80211p busyTime 0.0049858695652174
scalar World.node[66].nic.mac1609_4 ReceivedUnicastPackets 0
scalar World.node[66].nic.mac1609_4 ReceivedBroadcasts 5084
scalar World.node[66].nic.mac1609_4 SentPackets 551
scalar World.node[66].nic.mac1609_4 SentAcknowledgements 0
scalar World.node[66].nic.mac1609_4 SNIRLostPackets 613
scalar World.node[66].nic.mac1609_4 RXTXLostPackets 186
scalar World.node[66].nic.mac1609_4 TotalLostPackets 799
scalar World.node[66].nic.mac1609_4 DroppedPacketsInMac 0
scalar World.node[66].nic.mac1609_4 TooLittleTime 0
scalar World.node[66].nic.mac1609_4 TimesIntoBackoff 564
scalar World.node[66].nic.mac1609_4 SlotsBackoff 3999
scalar World.node[66].nic.mac1609_4 NumInternalContention 0
scalar World.node[66].nic.mac1609_4 totalBusyTime 0.994248081257
scalar World.node[61].appl.middleware.CaService #cam_sent 509
scalar World.node[61].appl.middleware.ExampleService #full_proofs 0
scalar World.node[61].appl.middleware.ExampleService #half_proofs 3
scalar World.node[61].appl.middleware.ExampleService #failed_proofs 0
scalar World.node[61].appl.middleware.ExampleService #loc_proof_send 26
scalar World.node[61].nic.phy80211p busyTime 0.0034281379310344
scalar World.node[61].nic.mac1609_4 ReceivedUnicastPackets 0
scalar World.node[61].nic.mac1609_4 ReceivedBroadcasts 3956
scalar World.node[61].nic.mac1609_4 SentPackets 535
scalar World.node[61].nic.mac1609_4 SentAcknowledgements 0
scalar World.node[61].nic.mac1609_4 SNIRLostPackets 395
scalar World.node[61].nic.mac1609_4 RXTXLostPackets 63
scalar World.node[61].nic.mac1609_4 TotalLostPackets 458
scalar World.node[61].nic.mac1609_4 DroppedPacketsInMac 0
scalar World.node[61].nic.mac1609_4 TooLittleTime 0
scalar World.node[61].nic.mac1609_4 TimesIntoBackoff 537
scalar World.node[61].nic.mac1609_4 SlotsBackoff 4114
scalar World.node[61].nic.mac1609_4 NumInternalContention 0
scalar World.node[61].nic.mac1609_4 totalBusyTime 0.768224271886
scalar World.node[74].appl.middleware.CaService #cam_sent 351
scalar World.node[74].appl.middleware.ExampleService #full_proofs 0
scalar World.node[74].appl.middleware.ExampleService #half_proofs 1
scalar World.node[74].appl.middleware.ExampleService #failed_proofs 0
scalar World.node[74].appl.middleware.ExampleService #loc_proof_send 29
scalar World.node[74].nic.phy80211p busyTime 0.0052375302013422
scalar World.node[74].nic.mac1609_4 ReceivedUnicastPackets 0
scalar World.node[74].nic.mac1609_4 ReceivedBroadcasts 4452
scalar World.node[74].nic.mac1609_4 SentPackets 380
scalar World.node[74].nic.mac1609_4 SentAcknowledgements 0
scalar World.node[74].nic.mac1609_4 SNIRLostPackets 408
scalar World.node[74].nic.mac1609_4 RXTXLostPackets 130
[...]
scalar World.node[918].nic.mac1609_4 totalBusyTime 0.866259750347
scalar World.node[886].appl.middleware.CaService #cam_sent 639
scalar World.node[886].appl.middleware.ExampleService #full_proofs 0
scalar World.node[886].appl.middleware.ExampleService #half_proofs 6
scalar World.node[886].appl.middleware.ExampleService #failed_proofs 0
scalar World.node[886].appl.middleware.ExampleService #loc_proof_send 112
scalar World.node[886].nic.phy80211p busyTime 0.0065641154855637
scalar World.node[886].nic.mac1609_4 ReceivedUnicastPackets 0
scalar World.node[886].nic.mac1609_4 ReceivedBroadcasts 14527
scalar World.node[886].nic.mac1609_4 SentPackets 751
scalar World.node[886].nic.mac1609_4 SentAcknowledgements 0
scalar World.node[886].nic.mac1609_4 SNIRLostPackets 1089
scalar World.node[886].nic.mac1609_4 RXTXLostPackets 826
scalar World.node[886].nic.mac1609_4 TotalLostPackets 1915
scalar World.node[886].nic.mac1609_4 DroppedPacketsInMac 0
scalar World.node[886].nic.mac1609_4 TooLittleTime 0
scalar World.node[886].nic.mac1609_4 TimesIntoBackoff 759
scalar World.node[886].nic.mac1609_4 SlotsBackoff 5819
scalar World.node[886].nic.mac1609_4 NumInternalContention 0
scalar World.node[886].nic.mac1609_4 totalBusyTime 2.54844649288
scalar World.node[921].appl.middleware.CaService #cam_sent 648
scalar World.node[921].appl.middleware.ExampleService #full_proofs 1
scalar World.node[921].appl.middleware.ExampleService #half_proofs 2
scalar World.node[921].appl.middleware.ExampleService #failed_proofs 1
scalar World.node[921].appl.middleware.ExampleService #loc_proof_send 24
scalar World.node[921].nic.phy80211p busyTime 0.0032944653061223
scalar World.node[921].nic.mac1609_4 ReceivedUnicastPackets 0
scalar World.node[921].nic.mac1609_4 ReceivedBroadcasts 3730
scalar World.node[921].nic.mac1609_4 SentPackets 672
scalar World.node[921].nic.mac1609_4 SentAcknowledgements 0
scalar World.node[921].nic.mac1609_4 SNIRLostPackets 1296
scalar World.node[921].nic.mac1609_4 RXTXLostPackets 78
scalar World.node[921].nic.mac1609_4 TotalLostPackets 1374
scalar World.node[921].nic.mac1609_4 DroppedPacketsInMac 0
scalar World.node[921].nic.mac1609_4 TooLittleTime 0
scalar World.node[921].nic.mac1609_4 TimesIntoBackoff 675
scalar World.node[921].nic.mac1609_4 SlotsBackoff 5084
scalar World.node[921].nic.mac1609_4 NumInternalContention 0
scalar World.node[921].nic.mac1609_4 totalBusyTime 0.897712287537
scalar World.node[916].appl.middleware.CaService #cam_sent 640
scalar World.node[916].appl.middleware.ExampleService #full_proofs 0
scalar World.node[916].appl.middleware.ExampleService #half_proofs 4
scalar World.node[916].appl.middleware.ExampleService #failed_proofs 0
scalar World.node[916].appl.middleware.ExampleService #loc_proof_send 29
scalar World.node[916].nic.phy80211p busyTime 0.0031351672862453
scalar World.node[916].nic.mac1609_4 ReceivedUnicastPackets 0
scalar World.node[916].nic.mac1609_4 ReceivedBroadcasts 4790
scalar World.node[916].nic.mac1609_4 SentPackets 669
scalar World.node[916].nic.mac1609_4 SentAcknowledgements 0
scalar World.node[916].nic.mac1609_4 SNIRLostPackets 472
scalar World.node[916].nic.mac1609_4 RXTXLostPackets 90
scalar World.node[916].nic.mac1609_4 TotalLostPackets 562
scalar World.node[916].nic.mac1609_4 DroppedPacketsInMac 0
scalar World.node[916].nic.mac1609_4 TooLittleTime 0
scalar World.node[916].nic.mac1609_4 TimesIntoBackoff 671
scalar World.node[916].nic.mac1609_4 SlotsBackoff 4885
scalar World.node[916].nic.mac1609_4 NumInternalContention 0
scalar World.node[916].nic.mac1609_4 totalBusyTime 0.93609508637
scalar World.node[940].appl.middleware.CaService #cam_sent 546
scalar World.node[940].appl.middleware.ExampleService #full_proofs 0
scalar World.node[940].appl.middleware.ExampleService #half_proofs 1
scalar World.node[940].appl.middleware.ExampleService #failed_proofs 2
scalar World.node[940].appl.middleware.ExampleService #loc_proof_send 22
scalar World.node[940].nic.phy80211p busyTime 0.0026005957446808
scalar World.node[940].nic.mac1609_4 ReceivedUnicastPackets 0
scalar World.node[940].nic.mac1609_4 ReceivedBroadcasts 2807
scalar World.node[940].nic.mac1609_4 SentPackets 568
scalar World.node[940].nic.mac1609_4 SentAcknowledgements 0
scalar World.node[940].nic.mac1609_4 SNIRLostPackets 214
scalar World.node[940].nic.mac1609_4 RXTXLostPackets 134
scalar World.node[940].nic.mac1609_4 TotalLostPackets 348
scalar World.node[940].nic.mac1609_4 DroppedPacketsInMac 0
scalar World.node[940].nic.mac1609_4 TooLittleTime 0
scalar World.node[940].nic.mac1609_4 TimesIntoBackoff 569
scalar World.node[940].nic.mac1609_4 SlotsBackoff 4168
scalar World.node[940].nic.mac1609_4 NumInternalContention 0
scalar World.node[940].nic.mac1609_4 totalBusyTime 0.572280869533
scalar World.node[939].appl.middleware.CaService #cam_sent 483
scalar World.node[939].appl.middleware.ExampleService #full_proofs 1
scalar World.node[939].appl.middleware.ExampleService #half_proofs 2
scalar World.node[939].appl.middleware.ExampleService #failed_proofs 0
scalar World.node[939].appl.middleware.ExampleService #loc_proof_send 16
scalar World.node[939].nic.phy80211p busyTime 0.0019723523316062
scalar World.node[939].nic.mac1609_4 ReceivedUnicastPackets 0
scalar World.node[939].nic.mac1609_4 ReceivedBroadcasts 1837
scalar World.node[939].nic.mac1609_4 SentPackets 499
scalar World.node[939].nic.mac1609_4 SentAcknowledgements 0
scalar World.node[939].nic.mac1609_4 SNIRLostPackets 515
scalar World.node[939].nic.mac1609_4 RXTXLostPackets 32
scalar World.node[939].nic.mac1609_4 TotalLostPackets 547
scalar World.node[939].nic.mac1609_4 DroppedPacketsInMac 0
scalar World.node[939].nic.mac1609_4 TooLittleTime 0
scalar World.node[939].nic.mac1609_4 TimesIntoBackoff 501
scalar World.node[939].nic.mac1609_4 SlotsBackoff 3673
scalar World.node[939].nic.mac1609_4 NumInternalContention 0
scalar World.node[939].nic.mac1609_4 totalBusyTime 0.458755103531
scalar World.node[888].appl.middleware.CaService #cam_sent 955
scalar World.node[888].appl.middleware.ExampleService #full_proofs 0
scalar World.node[888].appl.middleware.ExampleService #half_proofs 6
scalar World.node[888].appl.middleware.ExampleService #failed_proofs 0
scalar World.node[888].appl.middleware.ExampleService #loc_proof_send 78
scalar World.node[888].nic.phy80211p busyTime 0.0047104399999993
scalar World.node[888].nic.mac1609_4 ReceivedUnicastPackets 0
scalar World.node[888].nic.mac1609_4 ReceivedBroadcasts 10221
scalar World.node[888].nic.mac1609_4 SentPackets 1033
scalar World.node[888].nic.mac1609_4 SentAcknowledgements 0
scalar World.node[888].nic.mac1609_4 SNIRLostPackets 1589
scalar World.node[888].nic.mac1609_4 RXTXLostPackets 466
scalar World.node[888].nic.mac1609_4 TotalLostPackets 2055
scalar World.node[888].nic.mac1609_4 DroppedPacketsInMac 0
scalar World.node[888].nic.mac1609_4 TooLittleTime 0
scalar World.node[888].nic.mac1609_4 TimesIntoBackoff 1043
scalar World.node[888].nic.mac1609_4 SlotsBackoff 7730
scalar World.node[888].nic.mac1609_4 NumInternalContention 0
scalar World.node[888].nic.mac1609_4 totalBusyTime 1.989760920705
scalar World.node[896].appl.middleware.CaService #cam_sent 691
scalar World.node[896].appl.middleware.ExampleService #full_proofs 0
scalar World.node[896].appl.middleware.ExampleService #half_proofs 5
scalar World.node[896].appl.middleware.ExampleService #failed_proofs 1
scalar World.node[896].appl.middleware.ExampleService #loc_proof_send 91
scalar World.node[896].nic.phy80211p busyTime 0.0053228972972964
scalar World.node[896].nic.mac1609_4 ReceivedUnicastPackets 0
scalar World.node[896].nic.mac1609_4 ReceivedBroadcasts 11104
scalar World.node[896].nic.mac1609_4 SentPackets 782
scalar World.node[896].nic.mac1609_4 SentAcknowledgements 0
scalar World.node[896].nic.mac1609_4 SNIRLostPackets 1158
scalar World.node[896].nic.mac1609_4 RXTXLostPackets 586
scalar World.node[896].nic.mac1609_4 TotalLostPackets 1744
scalar World.node[896].nic.mac1609_4 DroppedPacketsInMac 0
scalar World.node[896].nic.mac1609_4 TooLittleTime 0
scalar World.node[896].nic.mac1609_4 TimesIntoBackoff 822
scalar World.node[896].nic.mac1609_4 SlotsBackoff 5918
scalar World.node[896].nic.mac1609_4 NumInternalContention 0
scalar World.node[896].nic.mac1609_4 totalBusyTime 2.050046418269
scalar World.node[911].appl.middleware.CaService #cam_sent 707
scalar World.node[911].appl.middleware.ExampleService #full_proofs 0
scalar World.node[911].appl.middleware.ExampleService #half_proofs 5
scalar World.node[911].appl.middleware.ExampleService #failed_proofs 1
scalar World.node[911].appl.middleware.ExampleService #loc_proof_send 70
scalar World.node[911].nic.phy80211p busyTime 0.0043682682926824
scalar World.node[911].nic.mac1609_4 ReceivedUnicastPackets 0
scalar World.node[911].nic.mac1609_4 ReceivedBroadcasts 7871
scalar World.node[911].nic.mac1609_4 SentPackets 777
scalar World.node[911].nic.mac1609_4 SentAcknowledgements 0
scalar World.node[911].nic.mac1609_4 SNIRLostPackets 1080
scalar World.node[911].nic.mac1609_4 RXTXLostPackets 436
scalar World.node[911].nic.mac1609_4 TotalLostPackets 1516
scalar World.node[911].nic.mac1609_4 DroppedPacketsInMac 0
scalar World.node[911].nic.mac1609_4 TooLittleTime 0
scalar World.node[911].nic.mac1609_4 TimesIntoBackoff 785
scalar World.node[911].nic.mac1609_4 SlotsBackoff 5974
scalar World.node[911].nic.mac1609_4 NumInternalContention 0
scalar World.node[911].nic.mac1609_4 totalBusyTime 1.511538288984
scalar World.node[937].appl.middleware.CaService #cam_sent 525
scalar World.node[937].appl.middleware.ExampleService #full_proofs 0
scalar World.node[937].appl.middleware.ExampleService #half_proofs 3
scalar World.node[937].appl.middleware.ExampleService #failed_proofs 1
scalar World.node[937].appl.middleware.ExampleService #loc_proof_send 24
scalar World.node[937].nic.phy80211p busyTime 0.0024260262008733
scalar World.node[937].nic.mac1609_4 ReceivedUnicastPackets 0
scalar World.node[937].nic.mac1609_4 ReceivedBroadcasts 3158
scalar World.node[937].nic.mac1609_4 SentPackets 549
scalar World.node[937].nic.mac1609_4 SentAcknowledgements 0
scalar World.node[937].nic.mac1609_4 SNIRLostPackets 295
scalar World.node[937].nic.mac1609_4 RXTXLostPackets 98
scalar World.node[937].nic.mac1609_4 TotalLostPackets 393
scalar World.node[937].nic.mac1609_4 DroppedPacketsInMac 0
scalar World.node[937].nic.mac1609_4 TooLittleTime 0
scalar World.node[937].nic.mac1609_4 TimesIntoBackoff 552
scalar World.node[937].nic.mac1609_4 SlotsBackoff 4164
scalar World.node[937].nic.mac1609_4 NumInternalContention 0
scalar World.node[937].nic.mac1609_4 totalBusyTime 0.635565474271
scalar World.node[898].appl.middleware.CaService #cam_sent 962
scalar World.node[898].appl.middleware.ExampleService #full_proofs 2
scalar World.node[898].appl.middleware.ExampleService #half_proofs 4
scalar World.node[898].appl.middleware.ExampleService #failed_proofs 1
scalar World.node[898].appl.middleware.ExampleService #loc_proof_send 83
scalar World.node[898].nic.phy80211p busyTime 0.0046455098039208
scalar World.node[898].nic.mac1609_4 ReceivedUnicastPackets 0
scalar World.node[898].nic.mac1609_4 ReceivedBroadcasts 10802
scalar World.node[898].nic.mac1609_4 SentPackets 1045
scalar World.node[898].nic.mac1609_4 SentAcknowledgements 0
scalar World.node[898].nic.mac1609_4 SNIRLostPackets 985
scalar World.node[898].nic.mac1609_4 RXTXLostPackets 686
scalar World.node[898].nic.mac1609_4 TotalLostPackets 1671
scalar World.node[898].nic.mac1609_4 DroppedPacketsInMac 0
scalar World.node[898].nic.mac1609_4 TooLittleTime 0
scalar World.node[898].nic.mac1609_4 TimesIntoBackoff 1054
scalar World.node[898].nic.mac1609_4 SlotsBackoff 7811
scalar World.node[898].nic.mac1609_4 NumInternalContention 0
scalar World.node[898].nic.mac1609_4 totalBusyTime 2.01608669254
scalar World.node[928].appl.middleware.CaService #cam_sent 744
scalar World.node[928].appl.middleware.ExampleService #full_proofs 0
scalar World.node[928].appl.middleware.ExampleService #half_proofs 2
scalar World.node[928].appl.middleware.ExampleService #failed_proofs 3
scalar World.node[928].appl.middleware.ExampleService #loc_proof_send 52
scalar World.node[928].nic.phy80211p busyTime 0.0028965153374231
scalar World.node[928].nic.mac1609_4 ReceivedUnicastPackets 0
scalar World.node[928].nic.mac1609_4 ReceivedBroadcasts 5371
scalar World.node[928].nic.mac1609_4 SentPackets 796
scalar World.node[928].nic.mac1609_4 SentAcknowledgements 0
scalar World.node[928].nic.mac1609_4 SNIRLostPackets 506
scalar World.node[928].nic.mac1609_4 RXTXLostPackets 310
scalar World.node[928].nic.mac1609_4 TotalLostPackets 816
scalar World.node[928].nic.mac1609_4 DroppedPacketsInMac 0
scalar World.node[928].nic.mac1609_4 TooLittleTime 0
scalar World.node[928].nic.mac1609_4 TimesIntoBackoff 800
scalar World.node[928].nic.mac1609_4 SlotsBackoff 5699
scalar World.node[928].nic.mac1609_4 NumInternalContention 0
scalar World.node[928].nic.mac1609_4 totalBusyTime 1.048603054341
scalar World.node[934].appl.middleware.CaService #cam_sent 586
scalar World.node[934].appl.middleware.ExampleService #full_proofs 1
scalar World.node[934].appl.middleware.ExampleService #half_proofs 3
scalar World.node[934].appl.middleware.ExampleService #failed_proofs 2
scalar World.node[934].appl.middleware.ExampleService #loc_proof_send 53
scalar World.node[934].nic.phy80211p busyTime 0.0034705194805192
scalar World.node[934].nic.mac1609_4 ReceivedUnicastPackets 0
scalar World.node[934].nic.mac1609_4 ReceivedBroadcasts 5894
scalar World.node[934].nic.mac1609_4 SentPackets 639
scalar World.node[934].nic.mac1609_4 SentAcknowledgements 0
scalar World.node[934].nic.mac1609_4 SNIRLostPackets 724
scalar World.node[934].nic.mac1609_4 RXTXLostPackets 359
scalar World.node[934].nic.mac1609_4 TotalLostPackets 1083
scalar World.node[934].nic.mac1609_4 DroppedPacketsInMac 0
scalar World.node[934].nic.mac1609_4 TooLittleTime 0
scalar World.node[934].nic.mac1609_4 TimesIntoBackoff 640
scalar World.node[934].nic.mac1609_4 SlotsBackoff 4776
scalar World.node[934].nic.mac1609_4 NumInternalContention 0
scalar World.node[934].nic.mac1609_4 totalBusyTime 1.147105227479
scalar World.node[895].appl.middleware.CaService #cam_sent 1044
scalar World.node[895].appl.middleware.ExampleService #full_proofs 2
scalar World.node[895].appl.middleware.ExampleService #half_proofs 5
scalar World.node[895].appl.middleware.ExampleService #failed_proofs 0
scalar World.node[895].appl.middleware.ExampleService #loc_proof_send 92
scalar World.node[895].nic.phy80211p busyTime 0.0043188425531908
scalar World.node[895].nic.mac1609_4 ReceivedUnicastPackets 0
scalar World.node[895].nic.mac1609_4 ReceivedBroadcasts 11549
scalar World.node[895].nic.mac1609_4 SentPackets 1136
scalar World.node[895].nic.mac1609_4 SentAcknowledgements 0
scalar World.node[895].nic.mac1609_4 SNIRLostPackets 1113
scalar World.node[895].nic.mac1609_4 RXTXLostPackets 701
scalar World.node[895].nic.mac1609_4 TotalLostPackets 1814
scalar World.node[895].nic.mac1609_4 DroppedPacketsInMac 0
scalar World.node[895].nic.mac1609_4 TooLittleTime 0
scalar World.node[895].nic.mac1609_4 TimesIntoBackoff 1143
scalar World.node[895].nic.mac1609_4 SlotsBackoff 8869
scalar World.node[895].nic.mac1609_4 NumInternalContention 0
scalar World.node[895].nic.mac1609_4 totalBusyTime 2.15128171304
scalar World.node[914].appl.middleware.CaService #cam_sent 936
scalar World.node[914].appl.middleware.ExampleService #full_proofs 3
scalar World.node[914].appl.middleware.ExampleService #half_proofs 4
scalar World.node[914].appl.middleware.ExampleService #failed_proofs 0
scalar World.node[914].appl.middleware.ExampleService #loc_proof_send 56
scalar World.node[914].nic.phy80211p busyTime 0.0031058905472634
scalar World.node[914].nic.mac1609_4 ReceivedUnicastPackets 0
scalar World.node[914].nic.mac1609_4 ReceivedBroadcasts 7219
scalar World.node[914].nic.mac1609_4 SentPackets 992
scalar World.node[914].nic.mac1609_4 SentAcknowledgements 0
scalar World.node[914].nic.mac1609_4 SNIRLostPackets 510
scalar World.node[914].nic.mac1609_4 RXTXLostPackets 365
scalar World.node[914].nic.mac1609_4 TotalLostPackets 875
scalar World.node[914].nic.mac1609_4 DroppedPacketsInMac 0
scalar World.node[914].nic.mac1609_4 TooLittleTime 0
scalar World.node[914].nic.mac1609_4 TimesIntoBackoff 994
scalar World.node[914].nic.mac1609_4 SlotsBackoff 7339
scalar World.node[914].nic.mac1609_4 NumInternalContention 0
scalar World.node[914].nic.mac1609_4 totalBusyTime 1.388558509312
scalar World.node[919].appl.middleware.CaService #cam_sent 930
scalar World.node[919].appl.middleware.ExampleService #full_proofs 1
scalar World.node[919].appl.middleware.ExampleService #half_proofs 4
scalar World.node[919].appl.middleware.ExampleService #failed_proofs 1
scalar World.node[919].appl.middleware.ExampleService #loc_proof_send 61
scalar World.node[919].nic.phy80211p busyTime 0.0034791568123389
scalar World.node[919].nic.mac1609_4 ReceivedUnicastPackets 0
scalar World.node[919].nic.mac1609_4 ReceivedBroadcasts 7639
scalar World.node[919].nic.mac1609_4 SentPackets 991
scalar World.node[919].nic.mac1609_4 SentAcknowledgements 0
scalar World.node[919].nic.mac1609_4 SNIRLostPackets 782
scalar World.node[919].nic.mac1609_4 RXTXLostPackets 304
scalar World.node[919].nic.mac1609_4 TotalLostPackets 1086
scalar World.node[919].nic.mac1609_4 DroppedPacketsInMac 0
scalar World.node[919].nic.mac1609_4 TooLittleTime 0
scalar World.node[919].nic.mac1609_4 TimesIntoBackoff 998
scalar World.node[919].nic.mac1609_4 SlotsBackoff 7479
scalar World.node[919].nic.mac1609_4 NumInternalContention 0
scalar World.node[919].nic.mac1609_4 totalBusyTime 1.471056412945
scalar World.node[922].appl.middleware.CaService #cam_sent 762
scalar World.node[922].appl.middleware.ExampleService #full_proofs 0
scalar World.node[922].appl.middleware.ExampleService #half_proofs 4
scalar World.node[922].appl.middleware.ExampleService #failed_proofs 2
scalar World.node[922].appl.middleware.ExampleService #loc_proof_send 57
scalar World.node[922].nic.phy80211p busyTime 0.0029417766233764
scalar World.node[922].nic.mac1609_4 ReceivedUnicastPackets 0
scalar World.node[922].nic.mac1609_4 ReceivedBroadcasts 6492
scalar World.node[922].nic.mac1609_4 SentPackets 819
scalar World.node[922].nic.mac1609_4 SentAcknowledgements 0
scalar World.node[922].nic.mac1609_4 SNIRLostPackets 559
scalar World.node[922].nic.mac1609_4 RXTXLostPackets 262
scalar World.node[922].nic.mac1609_4 TotalLostPackets 821
scalar World.node[922].nic.mac1609_4 DroppedPacketsInMac 0
scalar World.node[922].nic.mac1609_4 TooLittleTime 0
scalar World.node[922].nic.mac1609_4 TimesIntoBackoff 822
scalar World.node[922].nic.mac1609_4 SlotsBackoff 6292
scalar World.node[922].nic.mac1609_4 NumInternalContention 0
scalar World.node[922].nic.mac1609_4 totalBusyTime 1.237134486608
scalar World.node[941].appl.middleware.CaService #cam_sent 917
scalar World.node[941].appl.middleware.ExampleService #full_proofs 0
scalar World.node[941].appl.middleware.ExampleService #half_proofs 3
scalar World.node[941].appl.middleware.ExampleService #failed_proofs 2
scalar World.node[941].appl.middleware.ExampleService #loc_proof_send 48
scalar World.node[941].nic.phy80211p busyTime 0.002009907542579
scalar World.node[941].nic.mac1609_4 ReceivedUnicastPackets 0
scalar World.node[941].nic.mac1609_4 ReceivedBroadcasts 4796
scalar World.node[941].nic.mac1609_4 SentPackets 965
scalar World.node[941].nic.mac1609_4 SentAcknowledgements 0
scalar World.node[941].nic.mac1609_4 SNIRLostPackets 323
scalar World.node[941].nic.mac1609_4 RXTXLostPackets 300
scalar World.node[941].nic.mac1609_4 TotalLostPackets 623
scalar World.node[941].nic.mac1609_4 DroppedPacketsInMac 0
scalar World.node[941].nic.mac1609_4 TooLittleTime 0
scalar World.node[941].nic.mac1609_4 TimesIntoBackoff 969
scalar World.node[941].nic.mac1609_4 SlotsBackoff 7119
scalar World.node[941].nic.mac1609_4 NumInternalContention 0
scalar World.node[941].nic.mac1609_4 totalBusyTime 0.968185445875

