file 312305 1573990515                                          
version 2
run Obstacles-2-20191117-12:27:55-19092
attr configname Obstacles
attr datetime 20191117-12:27:55
attr experiment Obstacles
attr inifile omnetpp.ini
attr iterationvars $0=80
attr iterationvarsf 80-
attr measurement $0=80
attr network artery.veins.World
attr processid 19092
attr repetition 0
attr replication #0
attr resultdir results
attr runnumber 2
attr seedset 2
param *.traci.launcher.sumocfg "\"Obstacles/run.sumo.cfg\""
param *.withObstacles true
param *.obstacles.obstacles "xmldoc(\"config_obstacles.xml\", \"//AnalogueModel[@type='SimpleObstacleShadowing']/obstacles\")"
param *.node[*].nic.mac1609_4.txPower 20mW
param *.node[*].nic.phy80211p.decider "xmldoc(\"config_obstacles.xml\")"
param *.node[*].nic.phy80211p.analogueModels "xmldoc(\"config_obstacles.xml\")"
param *.node[*].applType "\"artery.veins.ApplicationLayer\""
param *.node[*].appl.middleware.updateInterval 0.1s
param *.node[*].appl.middleware.datetime "\"2013-06-01 12:35:00\""
param *.node[*].appl.middleware.services "xmldoc(\"services.xml\")"
param *.node[*].appl.middleware.ExampleService.DecisionLogic 80
param *.node[*].appl.middleware.ExampleService.NeighboringWindow 60
param *.traci.core.version -1
param *.traci.launcher.typename "\"PosixLauncher\""
param *.playgroundSizeX 4000m
param *.playgroundSizeY 4000m
param *.playgroundSizeZ 50m
param *.connectionManager.maxInterfDist 1500m
param *.connectionManager.sendDirect true
param *.connectionManager.coreDebug false

vector 0 World.node[5].appl.middleware.ExampleService proof_size ETV
vector 1 World.node[5].appl.middleware.ExampleService proof_requested ETV
vector 2 World.node[9].appl.middleware.ExampleService proof_size ETV
vector 3 World.node[9].appl.middleware.ExampleService proof_requested ETV
vector 4 World.node[1].appl.middleware.ExampleService proof_size ETV
vector 5 World.node[1].appl.middleware.ExampleService proof_requested ETV
vector 6 World.node[7].appl.middleware.ExampleService proof_size ETV
vector 7 World.node[7].appl.middleware.ExampleService proof_requested ETV
vector 8 World.node[13].appl.middleware.ExampleService proof_size ETV
vector 9 World.node[13].appl.middleware.ExampleService proof_requested ETV
3	2185 26 21981 21981 42.003095690371 42.003095690371 1 2 2 2 4
2	2211 26 21981 21981 42.003095690371 42.003095690371 1 0 0 0 0
vector 10 World.node[0].appl.middleware.ExampleService proof_size ETV
vector 11 World.node[0].appl.middleware.ExampleService proof_requested ETV
vector 12 World.node[4].appl.middleware.ExampleService proof_size ETV
vector 13 World.node[4].appl.middleware.ExampleService proof_requested ETV
vector 14 World.node[19].appl.middleware.ExampleService proof_size ETV
vector 15 World.node[19].appl.middleware.ExampleService proof_requested ETV
vector 16 World.node[20].appl.middleware.ExampleService proof_size ETV
vector 17 World.node[20].appl.middleware.ExampleService proof_requested ETV
vector 18 World.node[11].appl.middleware.ExampleService proof_size ETV
vector 19 World.node[11].appl.middleware.ExampleService proof_requested ETV
vector 20 World.node[8].appl.middleware.ExampleService proof_size ETV
vector 21 World.node[8].appl.middleware.ExampleService proof_requested ETV
vector 22 World.node[17].appl.middleware.ExampleService proof_size ETV
vector 23 World.node[17].appl.middleware.ExampleService proof_requested ETV
vector 24 World.node[22].appl.middleware.ExampleService proof_size ETV
vector 25 World.node[22].appl.middleware.ExampleService proof_requested ETV
vector 26 World.node[6].appl.middleware.ExampleService proof_size ETV
vector 27 World.node[6].appl.middleware.ExampleService proof_requested ETV
vector 28 World.node[12].appl.middleware.ExampleService proof_size ETV
vector 29 World.node[12].appl.middleware.ExampleService proof_requested ETV
vector 30 World.node[14].appl.middleware.ExampleService proof_size ETV
vector 31 World.node[14].appl.middleware.ExampleService proof_requested ETV
11	3846 27 89175 89175 74.097268435382 74.097268435382 1 3 3 3 9
10	3873 27 89175 89175 74.097268435382 74.097268435382 1 1 1 1 1
vector 32 World.node[15].appl.middleware.ExampleService proof_size ETV
vector 33 World.node[15].appl.middleware.ExampleService proof_requested ETV
vector 34 World.node[23].appl.middleware.ExampleService proof_size ETV
vector 35 World.node[23].appl.middleware.ExampleService proof_requested ETV
5	4194 26 40375 40375 53.000515914988 53.000515914988 1 2 2 2 4
4	4220 26 40375 40375 53.000515914988 53.000515914988 1 0 0 0 0
vector 36 World.node[18].appl.middleware.ExampleService proof_size ETV
vector 37 World.node[18].appl.middleware.ExampleService proof_requested ETV
vector 38 World.node[16].appl.middleware.ExampleService proof_size ETV
vector 39 World.node[16].appl.middleware.ExampleService proof_requested ETV
vector 40 World.node[29].appl.middleware.ExampleService proof_size ETV
vector 41 World.node[29].appl.middleware.ExampleService proof_requested ETV
vector 42 World.node[25].appl.middleware.ExampleService proof_size ETV
vector 43 World.node[25].appl.middleware.ExampleService proof_requested ETV
vector 44 World.node[30].appl.middleware.ExampleService proof_size ETV
vector 45 World.node[30].appl.middleware.ExampleService proof_requested ETV
vector 46 World.node[10].appl.middleware.ExampleService proof_size ETV
vector 47 World.node[10].appl.middleware.ExampleService proof_requested ETV
vector 48 World.node[32].appl.middleware.ExampleService proof_size ETV
vector 49 World.node[32].appl.middleware.ExampleService proof_requested ETV
vector 50 World.node[27].appl.middleware.ExampleService proof_size ETV
vector 51 World.node[27].appl.middleware.ExampleService proof_requested ETV
27	5422 28 186965 186965 99.113683927119 99.113683927119 1 1 1 1 1
26	5450 28 186965 186965 99.113683927119 99.113683927119 1 1 1 1 1
15	5478 56 97582 431493 77.023269271548 137.023269271548 2 4 6 10 52
14	5534 56 97582 431493 77.023269271548 137.023269271548 2 3 4 7 25
25	5590 28 185918 185918 99.033851185068 99.033851185068 1 7 7 7 49
24	5618 28 185918 185918 99.033851185068 99.033851185068 1 4 4 4 16
vector 52 World.node[24].appl.middleware.ExampleService proof_size ETV
vector 53 World.node[24].appl.middleware.ExampleService proof_requested ETV
9	5793 54 58630 330162 61.105251239487 124.047405621968 2 1 6 7 37
8	5847 54 58630 330162 61.105251239487 124.047405621968 2 1 3 4 10
vector 54 World.node[31].appl.middleware.ExampleService proof_size ETV
vector 55 World.node[31].appl.middleware.ExampleService proof_requested ETV
vector 56 World.node[26].appl.middleware.ExampleService proof_size ETV
vector 57 World.node[26].appl.middleware.ExampleService proof_requested ETV
vector 58 World.node[38].appl.middleware.ExampleService proof_size ETV
vector 59 World.node[38].appl.middleware.ExampleService proof_requested ETV
21	6342 57 149153 567034 91.064900773508 151.064900773508 2 3 7 10 58
20	6399 57 149153 567034 91.064900773508 151.064900773508 2 1 3 4 10
vector 60 World.node[40].appl.middleware.ExampleService proof_size ETV
vector 61 World.node[40].appl.middleware.ExampleService proof_requested ETV
vector 62 World.node[42].appl.middleware.ExampleService proof_size ETV
vector 63 World.node[42].appl.middleware.ExampleService proof_requested ETV
vector 64 World.node[37].appl.middleware.ExampleService proof_size ETV
vector 65 World.node[37].appl.middleware.ExampleService proof_requested ETV
vector 66 World.node[41].appl.middleware.ExampleService proof_size ETV
vector 67 World.node[41].appl.middleware.ExampleService proof_requested ETV
33	7044 58 227508 714918 107.045138744102 167.045138744102 2 6 6 12 72
32	7102 58 227508 714918 107.045138744102 167.045138744102 2 3 5 8 34
39	7160 30 331043 331043 124.090237639262 124.090237639262 1 12 12 12 144
38	7190 29 331043 331043 124.090237639262 124.090237639262 1 9 9 9 81
61	7219 30 764547 764547 172.047608138877 172.047608138877 1 10 10 10 100
60	7249 29 764547 764547 172.047608138877 172.047608138877 1 2 2 2 4
vector 68 World.node[33].appl.middleware.ExampleService proof_size ETV
vector 69 World.node[33].appl.middleware.ExampleService proof_requested ETV
vector 70 World.node[43].appl.middleware.ExampleService proof_size ETV
vector 71 World.node[43].appl.middleware.ExampleService proof_requested ETV
31	7572 58 217178 698211 105.077080843225 165.077080843225 2 6 6 12 72
30	7630 58 217178 698211 105.077080843225 165.077080843225 2 3 4 7 25
vector 72 World.node[39].appl.middleware.ExampleService proof_size ETV
vector 73 World.node[39].appl.middleware.ExampleService proof_requested ETV
vector 74 World.node[34].appl.middleware.ExampleService proof_size ETV
vector 75 World.node[34].appl.middleware.ExampleService proof_requested ETV
vector 76 World.node[45].appl.middleware.ExampleService proof_size ETV
vector 77 World.node[45].appl.middleware.ExampleService proof_requested ETV
vector 78 World.node[36].appl.middleware.ExampleService proof_size ETV
vector 79 World.node[36].appl.middleware.ExampleService proof_requested ETV
47	8276 29 424910 424910 136.016664435924 136.016664435924 1 5 5 5 25
46	8305 29 424910 424910 136.016664435924 136.016664435924 1 3 3 3 9
7	8334 83 42834 809956 54.007262038827 177.006896943413 3 1 11 15 131
6	8417 82 42834 809956 54.007262038827 177.006896943413 3 0 2 3 5
45	8499 57 368138 952504 129.08355820037 189.08355820037 2 5 14 19 221
44	8556 56 368138 952504 129.08355820037 189.08355820037 2 4 5 9 41
vector 80 World.node[28].appl.middleware.ExampleService proof_size ETV
vector 81 World.node[28].appl.middleware.ExampleService proof_requested ETV
vector 82 World.node[44].appl.middleware.ExampleService proof_size ETV
vector 83 World.node[44].appl.middleware.ExampleService proof_requested ETV
vector 84 World.node[48].appl.middleware.ExampleService proof_size ETV
vector 85 World.node[48].appl.middleware.ExampleService proof_requested ETV
vector 86 World.node[47].appl.middleware.ExampleService proof_size ETV
vector 87 World.node[47].appl.middleware.ExampleService proof_requested ETV
vector 88 World.node[57].appl.middleware.ExampleService proof_size ETV
vector 89 World.node[57].appl.middleware.ExampleService proof_requested ETV
51	9347 60 489837 1111347 143.070009051659 203.070009051659 2 3 14 17 205
50	9407 59 489837 1111347 143.070009051659 203.070009051659 2 2 4 6 20
69	9466 30 929582 929582 187.034951295587 187.034951295587 1 13 13 13 169
68	9496 29 929582 929582 187.034951295587 187.034951295587 1 6 6 6 36
vector 90 World.node[53].appl.middleware.ExampleService proof_size ETV
vector 91 World.node[53].appl.middleware.ExampleService proof_requested ETV
vector 92 World.node[50].appl.middleware.ExampleService proof_size ETV
vector 93 World.node[50].appl.middleware.ExampleService proof_requested ETV
55	9819 59 677701 1348415 163.011226956593 223.011226956593 2 2 8 10 68
54	9878 59 677701 1348415 163.011226956593 223.011226956593 2 0 1 1 1
53	9937 59 612465 1258351 156.098761472618 216.098761472618 2 3 7 10 58
52	9996 59 612465 1258351 156.098761472618 216.098761472618 2 1 1 2 2
vector 94 World.node[46].appl.middleware.ExampleService proof_size ETV
vector 95 World.node[46].appl.middleware.ExampleService proof_requested ETV
29	10202 88 194771 1320405 101.043744935398 221.043744935398 3 4 8 18 116
28	10290 88 194771 1320405 101.043744935398 221.043744935398 3 2 2 6 12
vector 96 World.node[52].appl.middleware.ExampleService proof_size ETV
vector 97 World.node[52].appl.middleware.ExampleService proof_requested ETV
91	10525 30 1506216 1506216 234.103858559219 234.103858559219 1 2 2 2 4
90	10555 30 1506216 1506216 234.103858559219 234.103858559219 1 2 2 2 4
vector 98 World.node[58].appl.middleware.ExampleService proof_size ETV
vector 99 World.node[58].appl.middleware.ExampleService proof_requested ETV
57	10732 61 687408 1362795 164.086679066834 224.086679066834 2 10 10 20 200
56	10793 59 687408 1362795 164.086679066834 224.086679066834 2 4 4 8 32
vector 100 World.node[49].appl.middleware.ExampleService proof_size ETV
vector 101 World.node[49].appl.middleware.ExampleService proof_requested ETV
59	11001 60 696985 1374344 165.035104158893 225.035104158893 2 2 11 13 125
58	11061 59 696985 1374344 165.035104158893 225.035104158893 2 1 4 5 17
vector 102 World.node[62].appl.middleware.ExampleService proof_size ETV
vector 103 World.node[62].appl.middleware.ExampleService proof_requested ETV
vector 104 World.node[55].appl.middleware.ExampleService proof_size ETV
vector 105 World.node[55].appl.middleware.ExampleService proof_requested ETV
vector 106 World.node[54].appl.middleware.ExampleService proof_size ETV
vector 107 World.node[54].appl.middleware.ExampleService proof_requested ETV
vector 108 World.node[51].appl.middleware.ExampleService proof_size ETV
vector 109 World.node[51].appl.middleware.ExampleService proof_requested ETV
107	11716 32 1958900 1958900 267.038390827784 267.038390827784 1 16 16 16 256
106	11748 32 1958900 1958900 267.038390827784 267.038390827784 1 10 10 10 100
17	11780 119 112998 1881804 81.088511106977 261.088511106977 4 4 11 32 294
16	11899 117 112998 1881804 81.088511106977 261.088511106977 4 1 8 14 78
vector 110 World.node[56].appl.middleware.ExampleService proof_size ETV
vector 111 World.node[56].appl.middleware.ExampleService proof_requested ETV
13	12165 86 95293 1031527 76.036365034967 196.036365034967 3 2 4 9 29
12	12251 86 95293 1031527 76.036365034967 196.036365034967 3 0 4 6 20
79	12337 61 1008227 1745787 194.023617908731 251.085646922285 2 1 12 13 145
78	12398 60 1008227 1745787 194.023617908731 251.085646922285 2 1 2 3 5
vector 112 World.node[60].appl.middleware.ExampleService proof_size ETV
vector 113 World.node[60].appl.middleware.ExampleService proof_requested ETV
vector 114 World.node[59].appl.middleware.ExampleService proof_size ETV
vector 115 World.node[59].appl.middleware.ExampleService proof_requested ETV
43	12756 90 360192 1744185 128.105247215546 251.050911739818 3 3 11 24 230
42	12846 88 360192 1744185 128.105247215546 251.050911739818 3 3 4 11 41
19	12934 117 140868 1980362 89.058549350942 269.058549350942 4 5 9 24 156
18	13051 117 140868 1980362 89.058549350942 269.058549350942 4 1 2 5 7
37	13168 89 249759 1458948 111.002406406053 231.002406406053 3 4 10 23 197
36	13257 88 249759 1458948 111.002406406053 231.002406406053 3 2 9 14 94
vector 116 World.node[69].appl.middleware.ExampleService proof_size ETV
vector 117 World.node[69].appl.middleware.ExampleService proof_requested ETV
81	13494 59 1240635 2073634 215.00965135023 275.00965135023 2 5 16 21 281
80	13553 58 1240635 2073634 215.00965135023 275.00965135023 2 3 3 6 18
vector 118 World.node[61].appl.middleware.ExampleService proof_size ETV
vector 119 World.node[61].appl.middleware.ExampleService proof_requested ETV
111	13760 32 2039074 2039074 273.039032523497 273.039032523497 1 10 10 10 100
110	13792 31 2039074 2039074 273.039032523497 273.039032523497 1 2 2 2 4
1	13823 139 13892 2122214 35.083312176176 278.082941794838 5 1 9 26 172
0	13962 139 13892 2122214 35.083312176176 278.082941794838 5 1 4 15 53
vector 120 World.node[64].appl.middleware.ExampleService proof_size ETV
vector 121 World.node[64].appl.middleware.ExampleService proof_requested ETV
vector 122 World.node[71].appl.middleware.ExampleService proof_size ETV
vector 123 World.node[71].appl.middleware.ExampleService proof_requested ETV
vector 124 World.node[73].appl.middleware.ExampleService proof_size ETV
vector 125 World.node[73].appl.middleware.ExampleService proof_requested ETV
73	14548 89 999146 2540633 193.027420209697 310.14443719435 3 2 12 22 212
72	14637 88 999146 2540633 193.027420209697 310.14443719435 3 2 4 9 29
vector 126 World.node[65].appl.middleware.ExampleService proof_size ETV
vector 127 World.node[65].appl.middleware.ExampleService proof_requested ETV
vector 128 World.node[70].appl.middleware.ExampleService proof_size ETV
vector 129 World.node[70].appl.middleware.ExampleService proof_requested ETV
89	15023 60 1403621 2271401 227.10385151752 290.039932248928 2 1 15 16 226
88	15083 59 1403621 2271401 227.10385151752 290.039932248928 2 1 4 5 17
49	15142 120 471304 2693615 141.062692317646 321.062692317646 4 6 11 34 302
48	15262 119 471304 2693615 141.062692317646 321.062692317646 4 1 2 6 10
vector 130 World.node[77].appl.middleware.ExampleService proof_size ETV
vector 131 World.node[77].appl.middleware.ExampleService proof_requested ETV
35	15530 118 227823 2233553 107.053571415576 287.053571415576 4 4 9 24 158
34	15648 118 227823 2233553 107.053571415576 287.053571415576 4 0 4 8 26
vector 132 World.node[66].appl.middleware.ExampleService proof_size ETV
vector 133 World.node[66].appl.middleware.ExampleService proof_requested ETV
vector 134 World.node[72].appl.middleware.ExampleService proof_size ETV
vector 135 World.node[72].appl.middleware.ExampleService proof_requested ETV
vector 136 World.node[82].appl.middleware.ExampleService proof_size ETV
vector 137 World.node[82].appl.middleware.ExampleService proof_requested ETV
97	16213 60 1615586 2427773 242.061980327638 302.061980327638 2 6 6 12 72
96	16273 60 1615586 2427773 242.061980327638 302.061980327638 2 1 4 5 17
65	16333 89 819211 2380247 178.000153582077 298.000153582077 3 6 7 20 134
64	16422 89 819211 2380247 178.000153582077 298.000153582077 3 1 2 4 6
71	16511 90 966270 2577290 190.092615324374 313.023007125617 3 1 12 21 209
70	16601 89 966270 2577290 190.092615324374 313.023007125617 3 1 7 14 86
vector 138 World.node[75].appl.middleware.ExampleService proof_size ETV
vector 139 World.node[75].appl.middleware.ExampleService proof_requested ETV
99	16839 61 1686485 2498413 247.085221620812 307.085221620812 2 8 10 18 164
98	16900 60 1686485 2498413 247.085221620812 307.085221620812 2 5 6 11 61
vector 140 World.node[76].appl.middleware.ExampleService proof_size ETV
vector 141 World.node[76].appl.middleware.ExampleService proof_requested ETV
23	17109 148 174153 2995616 96.22385095227 339.052039375273 5 2 16 50 618
22	17257 146 174153 2995616 96.22385095227 339.052039375273 5 2 6 21 105
115	17403 63 2111097 2963602 277.097992468509 337.097992468509 2 9 11 20 202
114	17466 62 2111097 2963602 277.097992468509 337.097992468509 2 3 7 10 58
87	17528 88 1388497 3117432 226.02948342904 346.02948342904 3 5 12 25 233
86	17616 87 1388497 3117432 226.02948342904 346.02948342904 3 2 5 11 45
vector 142 World.node[87].appl.middleware.ExampleService proof_size ETV
vector 143 World.node[87].appl.middleware.ExampleService proof_requested ETV
vector 144 World.node[86].appl.middleware.ExampleService proof_size ETV
vector 145 World.node[86].appl.middleware.ExampleService proof_requested ETV
vector 146 World.node[78].appl.middleware.ExampleService proof_size ETV
vector 147 World.node[78].appl.middleware.ExampleService proof_requested ETV
101	18150 63 1771048 2577561 253.026831928664 313.026831928664 2 9 11 20 202
100	18213 62 1771048 2577561 253.026831928664 313.026831928664 2 2 2 4 8
vector 148 World.node[88].appl.middleware.ExampleService proof_size ETV
vector 149 World.node[88].appl.middleware.ExampleService proof_requested ETV
vector 150 World.node[80].appl.middleware.ExampleService proof_size ETV
vector 151 World.node[80].appl.middleware.ExampleService proof_requested ETV
105	18573 62 1947816 2773724 266.06821101082 326.06821101082 2 11 12 23 265
104	18635 60 1947816 2773724 266.06821101082 326.06821101082 2 2 5 7 29
vector 152 World.node[89].appl.middleware.ExampleService proof_size ETV
vector 153 World.node[89].appl.middleware.ExampleService proof_requested ETV
vector 154 World.node[95].appl.middleware.ExampleService proof_size ETV
vector 155 World.node[95].appl.middleware.ExampleService proof_requested ETV
67	18993 120 905009 3491298 185.169765518459 368.085845013103 4 2 10 25 189
66	19113 119 905009 3491298 185.169765518459 368.085845013103 4 0 6 11 49
vector 156 World.node[85].appl.middleware.ExampleService proof_size ETV
vector 157 World.node[85].appl.middleware.ExampleService proof_requested ETV
vector 158 World.node[81].appl.middleware.ExampleService proof_size ETV
vector 159 World.node[81].appl.middleware.ExampleService proof_requested ETV
75	19530 123 1000071 3584718 193.068291794159 373.068291794159 4 9 13 44 492
74	19653 120 1000071 3584718 193.068291794159 373.068291794159 4 2 4 12 40
113	19773 63 2108306 2960494 277.045017257985 337.045017257985 2 9 15 24 306
112	19836 62 2108306 2960494 277.045017257985 337.045017257985 2 2 2 4 8
63	19898 121 811169 3301671 177.072506393446 357.072506393446 4 3 13 35 363
62	20019 119 811169 3301671 177.072506393446 357.072506393446 4 2 5 15 63
vector 160 World.node[98].appl.middleware.ExampleService proof_size ETV
vector 161 World.node[98].appl.middleware.ExampleService proof_requested ETV
vector 162 World.node[90].appl.middleware.ExampleService proof_size ETV
vector 163 World.node[90].appl.middleware.ExampleService proof_requested ETV
vector 164 World.node[84].appl.middleware.ExampleService proof_size ETV
vector 165 World.node[84].appl.middleware.ExampleService proof_requested ETV
vector 166 World.node[74].appl.middleware.ExampleService proof_size ETV
vector 167 World.node[74].appl.middleware.ExampleService proof_requested ETV
135	20734 32 3174124 3174124 349.065787167451 349.065787167451 1 17 17 17 289
134	20766 31 3174124 3174124 349.065787167451 349.065787167451 1 4 4 4 16
41	20797 150 336480 3435670 125.097492688079 365.097492688079 5 4 13 43 415
40	20947 148 336480 3435670 125.097492688079 365.097492688079 5 0 4 8 22
vector 168 World.node[101].appl.middleware.ExampleService proof_size ETV
vector 169 World.node[101].appl.middleware.ExampleService proof_requested ETV
vector 170 World.node[97].appl.middleware.ExampleService proof_size ETV
vector 171 World.node[97].appl.middleware.ExampleService proof_requested ETV
vector 172 World.node[96].appl.middleware.ExampleService proof_size ETV
vector 173 World.node[96].appl.middleware.ExampleService proof_requested ETV
vector 174 World.node[94].appl.middleware.ExampleService proof_size ETV
vector 175 World.node[94].appl.middleware.ExampleService proof_requested ETV
vector 176 World.node[99].appl.middleware.ExampleService proof_size ETV
vector 177 World.node[99].appl.middleware.ExampleService proof_requested ETV
95	21842 92 1592046 3345836 240.057829138217 360.057829138217 3 7 16 34 426
94	21934 90 1592046 3345836 240.057829138217 360.057829138217 3 3 5 11 43
vector 178 World.node[93].appl.middleware.ExampleService proof_size ETV
vector 179 World.node[93].appl.middleware.ExampleService proof_requested ETV
109	22173 96 1959299 3839836 267.052548961528 387.052548961528 3 11 18 42 614
108	22269 93 1959299 3839836 267.052548961528 387.052548961528 3 2 5 12 54
vector 180 World.node[103].appl.middleware.ExampleService proof_size ETV
vector 181 World.node[103].appl.middleware.ExampleService proof_requested ETV
vector 182 World.node[91].appl.middleware.ExampleService proof_size ETV
vector 183 World.node[91].appl.middleware.ExampleService proof_requested ETV
vector 184 World.node[83].appl.middleware.ExampleService proof_size ETV
vector 185 World.node[83].appl.middleware.ExampleService proof_requested ETV
159	22811 31 3690700 3690700 379.025691694813 379.025691694813 1 4 4 4 16
158	22842 31 3690700 3690700 379.025691694813 379.025691694813 1 0 0 0 0
vector 186 World.node[102].appl.middleware.ExampleService proof_size ETV
vector 187 World.node[102].appl.middleware.ExampleService proof_requested ETV
vector 188 World.node[106].appl.middleware.ExampleService proof_size ETV
vector 189 World.node[106].appl.middleware.ExampleService proof_requested ETV
vector 190 World.node[92].appl.middleware.ExampleService proof_size ETV
vector 191 World.node[92].appl.middleware.ExampleService proof_requested ETV
147	23324 32 3417107 3417107 364.088226176845 364.088226176845 1 15 15 15 225
146	23356 31 3417107 3417107 364.088226176845 364.088226176845 1 7 7 7 49
vector 192 World.node[104].appl.middleware.ExampleService proof_size ETV
vector 193 World.node[104].appl.middleware.ExampleService proof_requested ETV
vector 194 World.node[100].appl.middleware.ExampleService proof_size ETV
vector 195 World.node[100].appl.middleware.ExampleService proof_requested ETV
83	23689 122 1240754 3936530 215.025539384712 392.143644805219 4 5 19 43 567
82	23811 121 1240754 3936530 215.025539384712 392.143644805219 4 0 11 23 195
127	23932 63 2664991 3690386 319.013252357254 379.013252357254 2 5 10 15 125
126	23995 62 2664991 3690386 319.013252357254 379.013252357254 2 2 3 5 13
vector 196 World.node[110].appl.middleware.ExampleService proof_size ETV
vector 197 World.node[110].appl.middleware.ExampleService proof_requested ETV
133	24208 64 3157413 4245287 348.094224512996 408.094224512996 2 11 14 25 317
132	24272 62 3157413 4245287 348.094224512996 408.094224512996 2 0 3 3 9
vector 198 World.node[115].appl.middleware.ExampleService proof_size ETV
vector 199 World.node[115].appl.middleware.ExampleService proof_requested ETV
vector 200 World.node[112].appl.middleware.ExampleService proof_size ETV
vector 201 World.node[112].appl.middleware.ExampleService proof_requested ETV
vector 202 World.node[105].appl.middleware.ExampleService proof_size ETV
vector 203 World.node[105].appl.middleware.ExampleService proof_requested ETV
119	24787 95 2271062 4282699 290.029487629235 410.029487629235 3 4 20 34 516
118	24882 93 2271062 4282699 290.029487629235 410.029487629235 3 2 8 14 84
167	24975 30 3899082 3899082 390.0736538884 390.0736538884 1 18 18 18 324
166	25005 29 3899082 3899082 390.0736538884 390.0736538884 1 9 9 9 81
vector 204 World.node[111].appl.middleware.ExampleService proof_size ETV
vector 205 World.node[111].appl.middleware.ExampleService proof_requested ETV
193	25185 32 4556438 4556438 423.076683521993 423.076683521993 1 20 20 20 400
192	25217 31 4556438 4556438 423.076683521993 423.076683521993 1 3 3 3 9
141	25248 64 3273697 4395017 355.092846567137 415.092846567137 2 11 11 22 242
140	25312 62 3273697 4395017 355.092846567137 415.092846567137 2 1 4 5 17
vector 206 World.node[116].appl.middleware.ExampleService proof_size ETV
vector 207 World.node[116].appl.middleware.ExampleService proof_requested ETV
139	25525 64 3255780 4372213 354.038896823814 414.038896823814 2 11 12 23 265
138	25589 62 3255780 4372213 354.038896823814 414.038896823814 2 6 7 13 85
vector 208 World.node[108].appl.middleware.ExampleService proof_size ETV
vector 209 World.node[108].appl.middleware.ExampleService proof_requested ETV
121	25802 96 2418597 4517938 301.095941904024 421.095941904024 3 10 12 32 344
120	25898 93 2418597 4517938 301.095941904024 421.095941904024 3 3 7 14 74
123	25991 95 2467212 4591794 305.033324833889 425.033324833889 3 8 12 30 308
122	26086 93 2467212 4591794 305.033324833889 425.033324833889 3 2 2 6 12
vector 210 World.node[118].appl.middleware.ExampleService proof_size ETV
vector 211 World.node[118].appl.middleware.ExampleService proof_requested ETV
157	26330 62 3676992 4955593 378.14769308138 441.087323148013 2 1 16 17 257
156	26392 61 3676992 4955593 378.14769308138 441.087323148013 2 1 4 5 17
vector 212 World.node[109].appl.middleware.ExampleService proof_size ETV
vector 213 World.node[109].appl.middleware.ExampleService proof_requested ETV
117	26604 124 2189960 5429023 283.124325071555 460.129011297362 4 3 9 24 164
116	26728 124 2189960 5429023 283.124325071555 460.129011297362 4 0 7 15 83
85	26852 153 1296922 5398160 219.067932416638 459.067932416638 5 6 14 54 630
84	27005 150 1296922 5398160 219.067932416638 459.067932416638 5 2 5 20 86
vector 214 World.node[107].appl.middleware.ExampleService proof_size ETV
vector 215 World.node[107].appl.middleware.ExampleService proof_requested ETV
vector 216 World.node[117].appl.middleware.ExampleService proof_size ETV
vector 217 World.node[117].appl.middleware.ExampleService proof_requested ETV
vector 218 World.node[114].appl.middleware.ExampleService proof_size ETV
vector 219 World.node[114].appl.middleware.ExampleService proof_requested ETV
185	27608 63 4345927 5719259 413.010102665867 473.010102665867 2 2 19 21 365
184	27671 62 4345927 5719259 413.010102665867 473.010102665867 2 1 4 5 17
175	27733 64 4131113 5475881 402.081910010357 462.081910010357 2 11 20 31 521
174	27797 62 4131113 5475881 402.081910010357 462.081910010357 2 7 8 15 113
vector 220 World.node[119].appl.middleware.ExampleService proof_size ETV
vector 221 World.node[119].appl.middleware.ExampleService proof_requested ETV
vector 222 World.node[122].appl.middleware.ExampleService proof_size ETV
vector 223 World.node[122].appl.middleware.ExampleService proof_requested ETV
vector 224 World.node[123].appl.middleware.ExampleService proof_size ETV
vector 225 World.node[123].appl.middleware.ExampleService proof_requested ETV
181	28312 63 4326959 5699693 412.051618970023 472.051618970023 2 5 11 16 146
180	28375 62 4326959 5699693 412.051618970023 472.051618970023 2 0 1 1 1
203	28437 32 5134968 5134968 449.033410255774 449.033410255774 1 20 20 20 400
202	28469 31 5134968 5134968 449.033410255774 449.033410255774 1 5 5 5 25
205	28500 32 5180646 5180646 451.050431662449 451.050431662449 1 13 13 13 169
204	28532 31 5180646 5180646 451.050431662449 451.050431662449 1 2 2 2 4
93	28563 151 1534317 5782312 236.083535911632 476.083535911632 5 5 11 40 340
92	28714 150 1534317 5782312 236.083535911632 476.083535911632 5 0 4 7 19
209	28864 31 5496068 5496068 463.024924072064 463.024924072064 1 4 4 4 16
208	28895 31 5496068 5496068 463.024924072064 463.024924072064 1 3 3 3 9
143	28926 95 3372835 5893001 362.011599460826 482.011599460826 3 3 21 39 675
142	29021 93 3372835 5893001 362.011599460826 482.011599460826 3 2 3 8 22
vector 226 World.node[113].appl.middleware.ExampleService proof_size ETV
vector 227 World.node[113].appl.middleware.ExampleService proof_requested ETV
vector 228 World.node[126].appl.middleware.ExampleService proof_size ETV
vector 229 World.node[126].appl.middleware.ExampleService proof_requested ETV
149	29416 94 3487701 6002166 368.025940183504 488.025940183504 3 4 12 24 224
148	29510 93 3487701 6002166 368.025940183504 488.025940183504 3 1 4 6 18
169	29603 63 4053319 5368377 398.037459656736 458.037459656736 2 5 15 20 250
168	29666 62 4053319 5368377 398.037459656736 458.037459656736 2 2 8 10 68
125	29728 127 2535543 6088081 310.046514218448 493.046144766989 4 1 12 34 366
124	29855 124 2535543 6088081 310.046514218448 493.046144766989 4 1 5 11 39
201	29979 32 5134117 5134117 449.006511411117 449.006511411117 1 16 16 16 256
200	30011 31 5134117 5134117 449.006511411117 449.006511411117 1 4 4 4 16
137	30042 93 3187673 5653075 350.051721442584 470.051721442584 3 7 9 24 194
136	30135 93 3187673 5653075 350.051721442584 470.051721442584 3 2 4 8 24
215	30228 31 5682408 5682408 471.138035791477 471.138035791477 1 7 7 7 49
214	30259 31 5682408 5682408 471.138035791477 471.138035791477 1 7 7 7 49
vector 230 World.node[129].appl.middleware.ExampleService proof_size ETV
vector 231 World.node[129].appl.middleware.ExampleService proof_requested ETV
vector 232 World.node[120].appl.middleware.ExampleService proof_size ETV
vector 233 World.node[120].appl.middleware.ExampleService proof_requested ETV
103	30592 157 1855290 6180922 259.078796947794 499.078796947794 5 2 11 39 363
102	30749 155 1855290 6180922 259.078796947794 499.078796947794 5 1 7 14 64
vector 234 World.node[125].appl.middleware.ExampleService proof_size ETV
vector 235 World.node[125].appl.middleware.ExampleService proof_requested ETV
131	31055 127 2996886 6546177 339.077918293909 519.077918293909 4 9 14 50 642
130	31182 124 2996886 6546177 339.077918293909 519.077918293909 4 3 5 15 59
vector 236 World.node[135].appl.middleware.ExampleService proof_size ETV
vector 237 World.node[135].appl.middleware.ExampleService proof_requested ETV
vector 238 World.node[127].appl.middleware.ExampleService proof_size ETV
vector 239 World.node[127].appl.middleware.ExampleService proof_requested ETV
211	31608 62 5544553 6642381 465.070211456932 525.012661086357 2 1 2 3 5
210	31670 62 5544553 6642381 465.070211456932 525.012661086357 2 1 2 3 5
vector 240 World.node[132].appl.middleware.ExampleService proof_size ETV
vector 241 World.node[132].appl.middleware.ExampleService proof_requested ETV
77	31883 183 1002108 6136663 193.13689875801 496.068898499734 6 2 21 63 913
76	32066 179 1002108 6136663 193.13689875801 496.068898499734 6 2 9 24 134
189	32245 95 4395238 6757698 415.112732096226 532.013101174399 3 1 13 25 291
188	32340 93 4395238 6757698 415.112732096226 532.013101174399 3 0 3 4 10
145	32433 126 3376852 6908775 362.083049714263 542.083049714263 4 3 13 34 358
144	32559 124 3376852 6908775 362.083049714263 542.083049714263 4 1 6 12 50
vector 242 World.node[130].appl.middleware.ExampleService proof_size ETV
vector 243 World.node[130].appl.middleware.ExampleService proof_requested ETV
vector 244 World.node[128].appl.middleware.ExampleService proof_size ETV
vector 245 World.node[128].appl.middleware.ExampleService proof_requested ETV
153	32985 95 3566562 6072011 372.058421528828 492.058421528828 3 4 14 28 312
152	33080 94 3566562 6072011 372.058421528828 492.058421528828 3 2 10 17 129
187	33174 91 4373317 6791842 414.06455074246 534.06455074246 3 5 11 23 195
186	33265 90 4373317 6791842 414.06455074246 534.06455074246 3 3 4 10 34
183	33355 94 4331336 6805402 412.123838223571 535.063472516998 3 1 19 27 411
182	33449 93 4331336 6805402 412.123838223571 535.063472516998 3 1 6 9 41
223	33542 62 5844347 6863009 479.191825762153 539.123578154032 2 3 3 6 18
222	33604 62 5844347 6863009 479.191825762153 539.123578154032 2 3 3 6 18
221	33666 63 5822822 6848680 478.089518078323 538.089518078323 2 2 13 15 173
220	33729 62 5822822 6848680 478.089518078323 538.089518078323 2 0 7 7 49
151	33791 125 3509308 7026252 369.057065268722 549.057065268722 4 7 10 32 262
150	33916 124 3509308 7026252 369.057065268722 549.057065268722 4 2 3 9 21
vector 246 World.node[131].appl.middleware.ExampleService proof_size ETV
vector 247 World.node[131].appl.middleware.ExampleService proof_requested ETV
vector 248 World.node[134].appl.middleware.ExampleService proof_size ETV
vector 249 World.node[134].appl.middleware.ExampleService proof_requested ETV
vector 250 World.node[133].appl.middleware.ExampleService proof_size ETV
vector 251 World.node[133].appl.middleware.ExampleService proof_requested ETV
195	34493 94 4748861 7069393 432.006246949686 552.006246949686 3 7 14 30 326
194	34587 93 4748861 7069393 432.006246949686 552.006246949686 3 2 6 11 49
vector 252 World.node[140].appl.middleware.ExampleService proof_size ETV
vector 253 World.node[140].appl.middleware.ExampleService proof_requested ETV
239	34831 31 6741348 6741348 531.036707134172 531.036707134172 1 8 8 8 64
238	34862 31 6741348 6741348 531.036707134172 531.036707134172 1 1 1 1 1
229	34893 61 6166409 7171592 498.09832218152 558.09832218152 2 8 18 26 388
228	34954 60 6166409 7171592 498.09832218152 558.09832218152 2 1 9 10 82
vector 254 World.node[142].appl.middleware.ExampleService proof_size ETV
vector 255 World.node[142].appl.middleware.ExampleService proof_requested ETV
217	35165 62 5696190 6757134 472.001944802655 532.001944802655 2 5 8 13 89
216	35227 62 5696190 6757134 472.001944802655 532.001944802655 2 3 4 7 25
vector 256 World.node[136].appl.middleware.ExampleService proof_size ETV
vector 257 World.node[136].appl.middleware.ExampleService proof_requested ETV
vector 258 World.node[139].appl.middleware.ExampleService proof_size ETV
vector 259 World.node[139].appl.middleware.ExampleService proof_requested ETV
vector 260 World.node[149].appl.middleware.ExampleService proof_size ETV
vector 261 World.node[149].appl.middleware.ExampleService proof_requested ETV
vector 262 World.node[137].appl.middleware.ExampleService proof_size ETV
vector 263 World.node[137].appl.middleware.ExampleService proof_requested ETV
237	35893 31 6722370 6722370 530.016554482876 530.016554482876 1 1 1 1 1
236	35924 31 6722370 6722370 530.016554482876 530.016554482876 1 1 1 1 1
vector 264 World.node[141].appl.middleware.ExampleService proof_size ETV
vector 265 World.node[141].appl.middleware.ExampleService proof_requested ETV
vector 266 World.node[138].appl.middleware.ExampleService proof_size ETV
vector 267 World.node[138].appl.middleware.ExampleService proof_requested ETV
197	36257 95 4998010 7255170 443.049607919785 563.049607919785 3 3 22 37 637
196	36352 93 4998010 7255170 443.049607919785 563.049607919785 3 0 7 10 58
165	36445 124 3880516 7402199 389.11183275467 572.064642863395 4 6 17 36 410
164	36569 123 3880516 7402199 389.11183275467 572.064642863395 4 3 6 18 86
vector 268 World.node[147].appl.middleware.ExampleService proof_size ETV
vector 269 World.node[147].appl.middleware.ExampleService proof_requested ETV
177	36843 127 4204485 7627376 406.071454090485 586.071454090485 4 5 12 38 390
176	36970 124 4204485 7627376 406.071454090485 586.071454090485 4 2 4 10 28
163	37094 126 3875471 7353152 389.023125705798 569.023125705798 4 7 28 54 1014
162	37220 124 3875471 7353152 389.023125705798 569.023125705798 4 0 3 7 19
vector 270 World.node[150].appl.middleware.ExampleService proof_size ETV
vector 271 World.node[150].appl.middleware.ExampleService proof_requested ETV
vector 272 World.node[143].appl.middleware.ExampleService proof_size ETV
vector 273 World.node[143].appl.middleware.ExampleService proof_requested ETV
233	37646 63 6546701 7519499 519.090255036065 579.090255036065 2 6 13 19 205
232	37709 62 6546701 7519499 519.090255036065 579.090255036065 2 4 4 8 32
179	37771 126 4242571 7659226 408.041965999082 588.041965999082 4 6 21 46 670
178	37897 124 4242571 7659226 408.041965999082 588.041965999082 4 0 7 15 89
173	38021 127 4128255 7564656 402.012120974693 582.012120974693 4 6 15 46 578
172	38148 124 4128255 7564656 402.012120974693 582.012120974693 4 2 6 16 74
171	38272 127 4096364 7535058 400.071433783812 580.071433783812 4 6 22 55 885
170	38399 124 4096364 7535058 400.071433783812 580.071433783812 4 1 6 12 50
155	38523 125 3616916 7116423 375.034329836769 555.034329836769 4 6 14 38 394
154	38648 124 3616916 7116423 375.034329836769 555.034329836769 4 2 2 8 16
161	38772 128 3820536 7303534 386.032472247374 566.032472247374 4 11 17 54 750
160	38900 124 3820536 7303534 386.032472247374 566.032472247374 4 1 4 10 30
vector 274 World.node[144].appl.middleware.ExampleService proof_size ETV
vector 275 World.node[144].appl.middleware.ExampleService proof_requested ETV
vector 276 World.node[148].appl.middleware.ExampleService proof_size ETV
vector 277 World.node[148].appl.middleware.ExampleService proof_requested ETV
vector 278 World.node[146].appl.middleware.ExampleService proof_size ETV
vector 279 World.node[146].appl.middleware.ExampleService proof_requested ETV
vector 280 World.node[156].appl.middleware.ExampleService proof_size ETV
vector 281 World.node[156].appl.middleware.ExampleService proof_requested ETV
vector 282 World.node[145].appl.middleware.ExampleService proof_size ETV
vector 283 World.node[145].appl.middleware.ExampleService proof_requested ETV
207	39779 96 5445489 7546887 461.029536592378 581.029536592378 3 10 12 32 344
206	39875 93 5445489 7546887 461.029536592378 581.029536592378 3 2 3 8 22
271	39968 31 7985232 7985232 605.130585591558 605.130585591558 1 1 1 1 1
270	39999 31 7985232 7985232 605.130585591558 605.130585591558 1 1 1 1 1
243	40030 64 6923973 7941770 543.022210655152 603.022210655152 2 18 20 38 724
242	40094 62 6923973 7941770 543.022210655152 603.022210655152 2 4 7 11 65
vector 284 World.node[152].appl.middleware.ExampleService proof_size ETV
vector 285 World.node[152].appl.middleware.ExampleService proof_requested ETV
231	40307 63 6520918 7547160 518.034956020228 581.034590270929 2 1 18 19 325
230	40370 62 6520918 7547160 518.034956020228 581.034590270929 2 0 1 1 1
vector 286 World.node[159].appl.middleware.ExampleService proof_size ETV
vector 287 World.node[159].appl.middleware.ExampleService proof_requested ETV
191	40583 126 4413627 7810969 416.091529603186 596.091529603186 4 3 17 37 447
190	40709 124 4413627 7810969 416.091529603186 596.091529603186 4 0 9 14 98
251	40833 63 7289408 8280586 565.080296628014 625.080296628014 2 2 12 14 148
250	40896 62 7289408 8280586 565.080296628014 625.080296628014 2 0 5 5 25
129	40958 190 2759818 8279938 325.041335555399 625.041335555399 6 3 19 69 1031
128	41148 186 2759818 8279938 325.041335555399 625.041335555399 6 1 8 22 112
vector 288 World.node[158].appl.middleware.ExampleService proof_size ETV
vector 289 World.node[158].appl.middleware.ExampleService proof_requested ETV
277	41485 32 8161802 8161802 616.040390311345 616.040390311345 1 16 16 16 256
276	41517 31 8161802 8161802 616.040390311345 616.040390311345 1 5 5 5 25
vector 290 World.node[155].appl.middleware.ExampleService proof_size ETV
vector 291 World.node[155].appl.middleware.ExampleService proof_requested ETV
227	41699 96 6164769 8190456 498.050602239231 618.050602239231 3 10 10 30 300
226	41795 93 6164769 8190456 498.050602239231 618.050602239231 3 3 6 14 70
vector 292 World.node[153].appl.middleware.ExampleService proof_size ETV
vector 293 World.node[153].appl.middleware.ExampleService proof_requested ETV
vector 294 World.node[157].appl.middleware.ExampleService proof_size ETV
vector 295 World.node[157].appl.middleware.ExampleService proof_requested ETV
vector 296 World.node[164].appl.middleware.ExampleService proof_size ETV
vector 297 World.node[164].appl.middleware.ExampleService proof_requested ETV
vector 298 World.node[163].appl.middleware.ExampleService proof_size ETV
vector 299 World.node[163].appl.middleware.ExampleService proof_requested ETV
265	42492 62 7679378 8612643 589.092994981515 649.092994981515 2 5 5 10 50
264	42554 62 7679378 8612643 589.092994981515 649.092994981515 2 2 2 4 8
vector 300 World.node[162].appl.middleware.ExampleService proof_size ETV
vector 301 World.node[162].appl.middleware.ExampleService proof_requested ETV
vector 302 World.node[167].appl.middleware.ExampleService proof_size ETV
vector 303 World.node[167].appl.middleware.ExampleService proof_requested ETV
245	42918 93 6960165 8850938 545.06101344109 665.06101344109 3 10 16 39 525
244	43011 90 6960165 8850938 545.06101344109 665.06101344109 3 2 7 15 89
259	43101 63 7567843 8555990 582.080437605454 645.046888429136 2 3 12 15 153
258	43164 62 7567843 8555990 582.080437605454 645.046888429136 2 1 3 4 10
vector 304 World.node[169].appl.middleware.ExampleService proof_size ETV
vector 305 World.node[169].appl.middleware.ExampleService proof_requested ETV
vector 306 World.node[165].appl.middleware.ExampleService proof_size ETV
vector 307 World.node[165].appl.middleware.ExampleService proof_requested ETV
225	43528 124 5988513 8882482 487.059152469784 667.059152469784 4 6 9 32 262
224	43652 124 5988513 8882482 487.059152469784 667.059152469784 4 2 4 12 38
vector 308 World.node[160].appl.middleware.ExampleService proof_size ETV
vector 309 World.node[160].appl.middleware.ExampleService proof_requested ETV
219	43927 127 5720505 8673368 473.033742727479 653.033742727479 4 6 20 56 894
218	44054 125 5720505 8673368 473.033742727479 653.033742727479 4 5 10 26 186
vector 310 World.node[166].appl.middleware.ExampleService proof_size ETV
vector 311 World.node[166].appl.middleware.ExampleService proof_requested ETV
263	44330 62 7623682 8568327 586.020322832232 646.020322832232 2 4 9 13 97
262	44392 62 7623682 8568327 586.020322832232 646.020322832232 2 1 4 5 17
vector 312 World.node[177].appl.middleware.ExampleService proof_size ETV
vector 313 World.node[177].appl.middleware.ExampleService proof_requested ETV
vector 314 World.node[171].appl.middleware.ExampleService proof_size ETV
vector 315 World.node[171].appl.middleware.ExampleService proof_requested ETV
vector 316 World.node[176].appl.middleware.ExampleService proof_size ETV
vector 317 World.node[176].appl.middleware.ExampleService proof_requested ETV
285	44907 32 8289361 8289361 626.086381478119 626.086381478119 1 10 10 10 100
284	44939 31 8289361 8289361 626.086381478119 626.086381478119 1 2 2 2 4
235	44970 96 6578904 8496774 521.050362115656 641.050362115656 3 10 20 46 756
234	45066 93 6578904 8496774 521.050362115656 641.050362115656 3 4 6 16 88
vector 318 World.node[168].appl.middleware.ExampleService proof_size ETV
vector 319 World.node[168].appl.middleware.ExampleService proof_requested ETV
269	45310 62 7881766 8775635 600.011740615172 660.011740615172 2 7 7 14 98
268	45372 62 7881766 8775635 600.011740615172 660.011740615172 2 0 2 2 4
281	45434 63 8190774 9055292 618.067296302412 678.067296302412 2 9 12 21 225
280	45497 62 8190774 9055292 618.067296302412 678.067296302412 2 4 4 8 32
287	45559 63 8362417 9322326 632.061261461722 692.061261461722 2 9 14 23 277
286	45622 62 8362417 9322326 632.061261461722 692.061261461722 2 0 3 3 9
293	45684 32 8706724 8706724 655.044344567321 655.044344567321 1 12 12 12 144
292	45716 31 8706724 8706724 655.044344567321 655.044344567321 1 5 5 5 25
249	45747 94 7274199 9163878 564.083708894113 684.083708894113 3 5 10 24 206
248	45841 93 7274199 9163878 564.083708894113 684.083708894113 3 1 4 8 26
213	45934 158 5631219 9612860 469.036842806311 709.036842806311 5 1 15 47 559
212	46092 155 5631219 9612860 469.036842806311 709.036842806311 5 0 4 10 36
vector 320 World.node[180].appl.middleware.ExampleService proof_size ETV
vector 321 World.node[180].appl.middleware.ExampleService proof_requested ETV
257	46398 94 7564710 9549332 582.012278828166 705.011915486143 3 1 16 23 293
256	46492 93 7564710 9549332 582.012278828166 705.011915486143 3 1 7 10 54
vector 322 World.node[181].appl.middleware.ExampleService proof_size ETV
vector 323 World.node[181].appl.middleware.ExampleService proof_requested ETV
vector 324 World.node[178].appl.middleware.ExampleService proof_size ETV
vector 325 World.node[178].appl.middleware.ExampleService proof_requested ETV
vector 326 World.node[173].appl.middleware.ExampleService proof_size ETV
vector 327 World.node[173].appl.middleware.ExampleService proof_requested ETV
vector 328 World.node[175].appl.middleware.ExampleService proof_size ETV
vector 329 World.node[175].appl.middleware.ExampleService proof_requested ETV
vector 330 World.node[170].appl.middleware.ExampleService proof_size ETV
vector 331 World.node[170].appl.middleware.ExampleService proof_requested ETV
255	47340 95 7449296 9376294 575.049785857275 695.049785857275 3 8 20 47 825
254	47435 93 7449296 9376294 575.049785857275 695.049785857275 3 3 9 19 139
vector 332 World.node[183].appl.middleware.ExampleService proof_size ETV
vector 333 World.node[183].appl.middleware.ExampleService proof_requested ETV
vector 334 World.node[174].appl.middleware.ExampleService proof_size ETV
vector 335 World.node[174].appl.middleware.ExampleService proof_requested ETV
vector 336 World.node[172].appl.middleware.ExampleService proof_size ETV
vector 337 World.node[172].appl.middleware.ExampleService proof_requested ETV
319	47981 30 9450532 9450532 699.04079567166 699.04079567166 1 8 8 8 64
318	48011 30 9450532 9450532 699.04079567166 699.04079567166 1 3 3 3 9
vector 338 World.node[186].appl.middleware.ExampleService proof_size ETV
vector 339 World.node[186].appl.middleware.ExampleService proof_requested ETV
267	48192 93 7691495 9625922 590.013856780645 710.013856780645 3 6 9 22 166
266	48285 93 7691495 9625922 590.013856780645 710.013856780645 3 0 2 4 8
vector 340 World.node[185].appl.middleware.ExampleService proof_size ETV
vector 341 World.node[185].appl.middleware.ExampleService proof_requested ETV
vector 342 World.node[189].appl.middleware.ExampleService proof_size ETV
vector 343 World.node[189].appl.middleware.ExampleService proof_requested ETV
vector 344 World.node[179].appl.middleware.ExampleService proof_size ETV
vector 345 World.node[179].appl.middleware.ExampleService proof_requested ETV
253	48831 95 7388313 9304453 571.075364247989 691.075364247989 3 9 21 49 883
252	48926 93 7388313 9304453 571.075364247989 691.075364247989 3 3 9 17 115
vector 346 World.node[182].appl.middleware.ExampleService proof_size ETV
vector 347 World.node[182].appl.middleware.ExampleService proof_requested ETV
279	49170 63 8162364 9022012 616.053616511845 676.053616511845 2 9 11 20 202
278	49233 62 8162364 9022012 616.053616511845 676.053616511845 2 4 4 8 32
vector 348 World.node[188].appl.middleware.ExampleService proof_size ETV
vector 349 World.node[188].appl.middleware.ExampleService proof_requested ETV
vector 350 World.node[184].appl.middleware.ExampleService proof_size ETV
vector 351 World.node[184].appl.middleware.ExampleService proof_requested ETV
199	49597 192 5090767 10225593 447.000876517687 744.113504909212 6 2 14 63 761
198	49789 188 5090767 10225593 447.000876517687 744.113504909212 6 1 10 29 215
305	49977 65 8990241 10030666 674.047009529942 734.047009529942 2 13 16 29 425
304	50042 63 8990241 10030666 674.047009529942 734.047009529942 2 3 5 8 34
vector 352 World.node[193].appl.middleware.ExampleService proof_size ETV
vector 353 World.node[193].appl.middleware.ExampleService proof_requested ETV
295	50256 63 8720463 9710657 656.086373833125 716.086373833125 2 9 17 26 370
294	50319 62 8720463 9710657 656.086373833125 716.086373833125 2 1 2 3 5
vector 354 World.node[191].appl.middleware.ExampleService proof_size ETV
vector 355 World.node[191].appl.middleware.ExampleService proof_requested ETV
vector 356 World.node[198].appl.middleware.ExampleService proof_size ETV
vector 357 World.node[198].appl.middleware.ExampleService proof_requested ETV
241	50683 127 6818848 9709221 536.035614529508 716.035614529508 4 7 14 47 585
240	50810 124 6818848 9709221 536.035614529508 716.035614529508 4 2 5 15 61
297	50934 95 8749774 10780992 658.031796657108 775.144144776689 3 3 12 19 169
296	51029 94 8749774 10780992 658.031796657108 775.144144776689 3 0 3 5 13
vector 358 World.node[187].appl.middleware.ExampleService proof_size ETV
vector 359 World.node[187].appl.middleware.ExampleService proof_requested ETV
273	51274 95 8005093 9881574 606.098669989477 726.098669989477 3 8 17 36 474
272	51369 93 8005093 9881574 606.098669989477 726.098669989477 3 5 6 17 97
327	51462 32 9797857 9797857 722.065093432367 722.065093432367 1 10 10 10 100
326	51494 31 9797857 9797857 722.065093432367 722.065093432367 1 3 3 3 9
vector 360 World.node[190].appl.middleware.ExampleService proof_size ETV
vector 361 World.node[190].appl.middleware.ExampleService proof_requested ETV
361	51676 32 10908885 10908885 782.094089545426 782.094089545426 1 5 5 5 25
360	51708 32 10908885 10908885 782.094089545426 782.094089545426 1 1 1 1 1
313	51740 61 9359222 10406197 694.01461475403 754.01461475403 2 5 5 10 50
312	51801 61 9359222 10406197 694.01461475403 754.01461475403 2 1 2 3 5
vector 362 World.node[200].appl.middleware.ExampleService proof_size ETV
vector 363 World.node[200].appl.middleware.ExampleService proof_requested ETV
289	52013 95 8542079 10572694 644.041260821046 764.041260821046 3 2 10 16 120
288	52108 94 8542079 10572694 644.041260821046 764.041260821046 3 1 2 5 9
vector 364 World.node[197].appl.middleware.ExampleService proof_size ETV
vector 365 World.node[197].appl.middleware.ExampleService proof_requested ETV
vector 366 World.node[195].appl.middleware.ExampleService proof_size ETV
vector 367 World.node[195].appl.middleware.ExampleService proof_requested ETV
vector 368 World.node[204].appl.middleware.ExampleService proof_size ETV
vector 369 World.node[204].appl.middleware.ExampleService proof_requested ETV
vector 370 World.node[194].appl.middleware.ExampleService proof_size ETV
vector 371 World.node[194].appl.middleware.ExampleService proof_requested ETV
275	52806 128 8145165 11130936 615.043543437705 795.043543437705 4 4 18 40 504
274	52934 126 8145165 11130936 615.043543437705 795.043543437705 4 2 7 17 87
vector 372 World.node[201].appl.middleware.ExampleService proof_size ETV
vector 373 World.node[201].appl.middleware.ExampleService proof_requested ETV
vector 374 World.node[192].appl.middleware.ExampleService proof_size ETV
vector 375 World.node[192].appl.middleware.ExampleService proof_requested ETV
301	53362 64 8848769 9856299 665.011335161841 725.011335161841 2 11 16 27 377
300	53426 62 8848769 9856299 665.011335161841 725.011335161841 2 1 2 3 5
371	53488 32 11242365 11242365 802.084029664495 802.084029664495 1 4 4 4 16
370	53520 32 11242365 11242365 802.084029664495 802.084029664495 1 0 0 0 0
315	53552 93 9361988 11460819 694.07781775014 814.07781775014 3 7 15 31 355
314	53645 92 9361988 11460819 694.07781775014 814.07781775014 3 2 6 12 56
303	53737 94 8912736 10993699 669.072773560695 786.15463502709 3 4 13 25 249
302	53831 93 8912736 10993699 669.072773560695 786.15463502709 3 1 4 9 33
vector 376 World.node[208].appl.middleware.ExampleService proof_size ETV
vector 377 World.node[208].appl.middleware.ExampleService proof_requested ETV
247	54075 160 7220204 11224575 561.036154031195 801.036154031195 5 5 23 62 960
246	54235 157 7220204 11224575 561.036154031195 801.036154031195 5 1 8 18 98
363	54392 32 11027398 11027398 788.053734653443 788.053734653443 1 9 9 9 81
362	54424 32 11027398 11027398 788.053734653443 788.053734653443 1 3 3 3 9
329	54456 63 9799035 10908882 722.09199115918 782.09199115918 2 13 14 27 365
328	54519 61 9799035 10908882 722.09199115918 782.09199115918 2 4 6 10 52
vector 378 World.node[212].appl.middleware.ExampleService proof_size ETV
vector 379 World.node[212].appl.middleware.ExampleService proof_requested ETV
vector 380 World.node[199].appl.middleware.ExampleService proof_size ETV
vector 381 World.node[199].appl.middleware.ExampleService proof_requested ETV
vector 382 World.node[202].appl.middleware.ExampleService proof_size ETV
vector 383 World.node[202].appl.middleware.ExampleService proof_requested ETV
vector 384 World.node[205].appl.middleware.ExampleService proof_size ETV
vector 385 World.node[205].appl.middleware.ExampleService proof_requested ETV
335	55184 64 9879670 10988481 726.050392719638 786.050392719638 2 4 11 15 137
334	55248 63 9879670 10988481 726.050392719638 786.050392719638 2 2 5 7 29
331	55311 65 9839289 10949874 724.026085241954 784.026085241954 2 15 19 34 586
330	55376 63 9839289 10949874 724.026085241954 784.026085241954 2 6 8 14 100
365	55439 33 11060293 11060293 790.090898334282 790.090898334282 1 14 14 14 196
364	55472 32 11060293 11060293 790.090898334282 790.090898334282 1 4 4 4 16
vector 386 World.node[196].appl.middleware.ExampleService proof_size ETV
vector 387 World.node[196].appl.middleware.ExampleService proof_requested ETV
345	55655 65 10150426 11211007 740.086621510051 800.086621510051 2 5 12 17 169
344	55720 64 10150426 11211007 740.086621510051 800.086621510051 2 2 2 4 8
vector 388 World.node[214].appl.middleware.ExampleService proof_size ETV
vector 389 World.node[214].appl.middleware.ExampleService proof_requested ETV
357	55935 65 10738183 11919809 773.149848266672 836.063937212504 2 2 17 19 293
356	56000 64 10738183 11919809 773.149848266672 836.063937212504 2 2 3 5 13
vector 390 World.node[207].appl.middleware.ExampleService proof_size ETV
vector 391 World.node[207].appl.middleware.ExampleService proof_requested ETV
vector 392 World.node[203].appl.middleware.ExampleService proof_size ETV
vector 393 World.node[203].appl.middleware.ExampleService proof_requested ETV
vector 394 World.node[216].appl.middleware.ExampleService proof_size ETV
vector 395 World.node[216].appl.middleware.ExampleService proof_requested ETV
vector 396 World.node[206].appl.middleware.ExampleService proof_size ETV
vector 397 World.node[206].appl.middleware.ExampleService proof_requested ETV
vector 398 World.node[210].appl.middleware.ExampleService proof_size ETV
vector 399 World.node[210].appl.middleware.ExampleService proof_requested ETV
vector 400 World.node[211].appl.middleware.ExampleService proof_size ETV
vector 401 World.node[211].appl.middleware.ExampleService proof_requested ETV
vector 402 World.node[215].appl.middleware.ExampleService proof_size ETV
vector 403 World.node[215].appl.middleware.ExampleService proof_requested ETV
vector 404 World.node[209].appl.middleware.ExampleService proof_size ETV
vector 405 World.node[209].appl.middleware.ExampleService proof_requested ETV
323	57272 97 9685498 11884834 714.063113797107 834.063113797107 3 6 16 36 488
322	57369 95 9685498 11884834 714.063113797107 834.063113797107 3 1 9 11 83
343	57464 97 10134694 12382995 739.089740270074 859.089740270074 3 1 17 21 299
342	57561 96 10134694 12382995 739.089740270074 859.089740270074 3 0 6 7 37
337	57657 98 9900843 12127515 727.022037777398 847.022037777398 3 11 14 39 513
336	57755 95 9900843 12127515 727.022037777398 847.022037777398 3 1 5 10 42
347	57850 66 10276437 11324374 747.052871913766 807.052871913766 2 11 16 27 377
346	57916 64 10276437 11324374 747.052871913766 807.052871913766 2 2 6 8 40
369	57980 61 11209200 12398168 800.0178988931 860.0178988931 2 7 12 19 193
368	58041 60 11209200 12398168 800.0178988931 860.0178988931 2 2 4 6 20
283	58101 160 8201808 12379156 619.004404310952 859.004404310952 5 7 10 44 394
282	58261 158 8201808 12379156 619.004404310952 859.004404310952 5 0 5 9 31
vector 406 World.node[223].appl.middleware.ExampleService proof_size ETV
vector 407 World.node[223].appl.middleware.ExampleService proof_requested ETV
vector 408 World.node[217].appl.middleware.ExampleService proof_size ETV
vector 409 World.node[217].appl.middleware.ExampleService proof_requested ETV
vector 410 World.node[218].appl.middleware.ExampleService proof_size ETV
vector 411 World.node[218].appl.middleware.ExampleService proof_requested ETV
vector 412 World.node[224].appl.middleware.ExampleService proof_size ETV
vector 413 World.node[224].appl.middleware.ExampleService proof_requested ETV
291	59023 128 8672765 11859542 653.007281830139 833.007281830139 4 4 19 44 610
290	59151 126 8672765 11859542 653.007281830139 833.007281830139 4 1 4 11 37
311	59277 130 9341437 12675083 693.034309686022 873.034309686022 4 7 18 56 854
310	59407 127 9341437 12675083 693.034309686022 873.034309686022 4 3 4 14 50
381	59534 33 11748534 11748534 827.065535979322 827.065535979322 1 16 16 16 256
380	59567 32 11748534 11748534 827.065535979322 827.065535979322 1 8 8 8 64
vector 414 World.node[220].appl.middleware.ExampleService proof_size ETV
vector 415 World.node[220].appl.middleware.ExampleService proof_requested ETV
321	59750 130 9659680 13066552 712.050624474604 892.050624474604 4 7 17 51 715
320	59880 127 9659680 13066552 712.050624474604 892.050624474604 4 3 6 18 90
395	60007 32 12268744 12268744 854.038308446365 854.038308446365 1 9 9 9 81
394	60039 32 12268744 12268744 854.038308446365 854.038308446365 1 3 3 3 9
341	60071 98 10118912 12420126 738.216843445502 861.007060395437 3 7 20 40 618
340	60169 98 10118912 12420126 738.216843445502 861.007060395437 3 3 13 27 299
367	60267 65 11104753 12255639 793.094524502987 853.094524502987 2 7 14 21 245
366	60332 64 11104753 12255639 793.094524502987 853.094524502987 2 0 4 4 16
vector 416 World.node[231].appl.middleware.ExampleService proof_size ETV
vector 417 World.node[231].appl.middleware.ExampleService proof_requested ETV
375	60547 65 11323286 12548584 807.015541212982 867.015541212982 2 2 14 16 200
374	60612 64 11323286 12548584 807.015541212982 867.015541212982 2 1 3 4 10
307	60676 129 9004006 12288061 675.011519598472 855.011519598472 4 6 20 42 572
306	60805 127 9004006 12288061 675.011519598472 855.011519598472 4 2 8 19 109
vector 418 World.node[213].appl.middleware.ExampleService proof_size ETV
vector 419 World.node[213].appl.middleware.ExampleService proof_requested ETV
vector 420 World.node[230].appl.middleware.ExampleService proof_size ETV
vector 421 World.node[230].appl.middleware.ExampleService proof_requested ETV
vector 422 World.node[234].appl.middleware.ExampleService proof_size ETV
vector 423 World.node[234].appl.middleware.ExampleService proof_requested ETV
vector 424 World.node[229].appl.middleware.ExampleService proof_size ETV
vector 425 World.node[229].appl.middleware.ExampleService proof_requested ETV
309	61536 129 9320124 12651403 692.025231129979 872.025231129979 4 8 16 45 553
308	61665 128 9320124 12651403 692.025231129979 872.025231129979 4 2 11 24 186
vector 426 World.node[235].appl.middleware.ExampleService proof_size ETV
vector 427 World.node[235].appl.middleware.ExampleService proof_requested ETV
vector 428 World.node[228].appl.middleware.ExampleService proof_size ETV
vector 429 World.node[228].appl.middleware.ExampleService proof_requested ETV
vector 430 World.node[221].appl.middleware.ExampleService proof_size ETV
vector 431 World.node[221].appl.middleware.ExampleService proof_requested ETV
349	62246 99 10350165 12634987 751.015363325342 871.015363325342 3 13 19 46 726
348	62345 96 10350165 12634987 751.015363325342 871.015363325342 3 3 6 14 70
355	62441 96 10691052 12992401 771.00166516935 888.096870966395 3 1 19 34 558
354	62537 94 10691052 12992401 771.00166516935 888.096870966395 3 1 6 8 38
379	62631 62 11745081 12913441 827.0005658329 884.108924870749 2 4 4 8 32
378	62693 62 11745081 12913441 827.0005658329 884.108924870749 2 0 4 4 16
299	62755 161 8763831 13168871 659.098185212445 899.098185212445 5 7 19 56 728
298	62916 158 8763831 13168871 659.098185212445 899.098185212445 5 1 7 16 72
vector 432 World.node[226].appl.middleware.ExampleService proof_size ETV
vector 433 World.node[226].appl.middleware.ExampleService proof_requested ETV
vector 434 World.node[227].appl.middleware.ExampleService proof_size ETV
vector 435 World.node[227].appl.middleware.ExampleService proof_requested ETV
vector 436 World.node[232].appl.middleware.ExampleService proof_size ETV
vector 437 World.node[232].appl.middleware.ExampleService proof_requested ETV
359	63527 97 10815417 13097672 777.036757646245 894.085341883714 3 2 12 23 229
358	63624 96 10815417 13097672 777.036757646245 894.085341883714 3 2 5 10 38
385	63720 64 11847634 13112760 832.12171521182 895.061346648261 2 1 15 16 226
384	63784 63 11847634 13112760 832.12171521182 895.061346648261 2 1 4 5 17
vector 438 World.node[236].appl.middleware.ExampleService proof_size ETV
vector 439 World.node[236].appl.middleware.ExampleService proof_requested ETV
389	63998 66 12195574 13355649 850.066945809708 910.066945809708 2 11 12 23 265
388	64064 64 12195574 13355649 850.066945809708 910.066945809708 2 2 4 6 20
333	64128 130 9877576 13279569 726.021966677322 906.021966677322 4 6 23 51 807
332	64258 127 9877576 13279569 726.021966677322 906.021966677322 4 2 6 19 101
351	64385 131 10476181 13793524 758.020254877373 938.020254877373 4 7 19 57 895
350	64516 129 10476181 13793524 758.020254877373 938.020254877373 4 3 10 22 154
vector 440 World.node[239].appl.middleware.ExampleService proof_size ETV
vector 441 World.node[239].appl.middleware.ExampleService proof_requested ETV
261	64796 227 7594672 13888866 584.042043959978 944.042043959978 7 2 18 92 1380
260	65023 221 7594672 13888866 584.042043959978 944.042043959978 7 2 5 25 95
383	65244 98 11825879 14058946 831.061431167754 954.043921631365 3 1 12 23 245
382	65342 96 11825879 14058946 831.061431167754 954.043921631365 3 1 4 8 26
vector 442 World.node[243].appl.middleware.ExampleService proof_size ETV
vector 443 World.node[243].appl.middleware.ExampleService proof_requested ETV
433	65589 32 13730833 13730833 934.086280683521 934.086280683521 1 2 2 2 4
432	65621 32 13730833 13730833 934.086280683521 934.086280683521 1 1 1 1 1
435	65653 32 13763076 13763076 936.055254406342 936.055254406342 1 8 8 8 64
434	65685 32 13763076 13763076 936.055254406342 936.055254406342 1 2 2 2 4
vector 444 World.node[244].appl.middleware.ExampleService proof_size ETV
vector 445 World.node[244].appl.middleware.ExampleService proof_requested ETV
vector 446 World.node[237].appl.middleware.ExampleService proof_size ETV
vector 447 World.node[237].appl.middleware.ExampleService proof_requested ETV
vector 448 World.node[246].appl.middleware.ExampleService proof_size ETV
vector 449 World.node[246].appl.middleware.ExampleService proof_requested ETV
339	66170 130 9936622 13334488 729.048815252492 909.048815252492 4 9 11 41 423
338	66300 127 9936622 13334488 729.048815252492 909.048815252492 4 3 5 15 59
401	66427 66 12358173 13503792 858.092878274666 918.092878274666 2 13 15 28 394
400	66493 64 12358173 13503792 858.092878274666 918.092878274666 2 2 4 6 20
393	66557 97 12230523 14362398 852.001321334112 972.001321334112 3 9 12 30 306
392	66654 96 12230523 14362398 852.001321334112 972.001321334112 3 2 6 12 56
vector 450 World.node[249].appl.middleware.ExampleService proof_size ETV
vector 451 World.node[249].appl.middleware.ExampleService proof_requested ETV
vector 452 World.node[241].appl.middleware.ExampleService proof_size ETV
vector 453 World.node[241].appl.middleware.ExampleService proof_requested ETV
405	67052 65 12423305 13548818 861.058912196034 921.058912196034 2 9 11 20 202
404	67117 64 12423305 13548818 861.058912196034 921.058912196034 2 6 9 15 117
411	67181 63 12614971 13713366 870.06067193582 933.005389306322 2 2 7 9 53
410	67244 63 12614971 13713366 870.06067193582 933.005389306322 2 2 3 5 13
vector 454 World.node[242].appl.middleware.ExampleService proof_size ETV
vector 455 World.node[242].appl.middleware.ExampleService proof_requested ETV
453	67458 32 14431253 14431253 976.100824002785 976.100824002785 1 1 1 1 1
452	67490 32 14431253 14431253 976.100824002785 976.100824002785 1 1 1 1 1
vector 456 World.node[245].appl.middleware.ExampleService proof_size ETV
vector 457 World.node[245].appl.middleware.ExampleService proof_requested ETV
387	67673 98 12012664 14172973 841.007055590698 961.007055590698 3 9 15 36 450
386	67771 96 12012664 14172973 841.007055590698 961.007055590698 3 1 5 8 30
325	67867 163 9686018 14061389 714.093805415649 954.093805415649 5 5 16 54 650
324	68030 159 9686018 14061389 714.093805415649 954.093805415649 5 2 5 20 88
vector 458 World.node[240].appl.middleware.ExampleService proof_size ETV
vector 459 World.node[240].appl.middleware.ExampleService proof_requested ETV
vector 460 World.node[247].appl.middleware.ExampleService proof_size ETV
vector 461 World.node[247].appl.middleware.ExampleService proof_requested ETV
373	68491 129 11310336 14609073 806.15583146526 989.095460365433 4 1 15 38 486
372	68620 127 11310336 14609073 806.15583146526 989.095460365433 4 1 4 9 27
377	68747 130 11528914 14683854 817.003187054489 994.063558887632 4 1 18 38 566
376	68877 129 11528914 14683854 817.003187054489 994.063558887632 4 1 10 22 186
vector 462 World.node[248].appl.middleware.ExampleService proof_size ETV
vector 463 World.node[248].appl.middleware.ExampleService proof_requested ETV
409	69157 99 12590569 14608861 869.088425429421 989.088425429421 3 10 18 42 620
408	69256 96 12590569 14608861 869.088425429421 989.088425429421 3 3 5 12 50
417	69352 64 13213278 14191543 902.090054286062 962.090054286062 2 5 8 13 89
416	69416 64 13213278 14191543 902.090054286062 962.090054286062 2 2 3 5 13
415	69480 99 13011728 14886541 889.089303268399 1009.089303268399 3 3 12 26 274
414	69579 97 13011728 14886541 889.089303268399 1009.089303268399 3 1 5 8 30
vector 464 World.node[253].appl.middleware.ExampleService proof_size ETV
vector 465 World.node[253].appl.middleware.ExampleService proof_requested ETV
vector 466 World.node[257].appl.middleware.ExampleService proof_size ETV
vector 467 World.node[257].appl.middleware.ExampleService proof_requested ETV
vector 468 World.node[254].appl.middleware.ExampleService proof_size ETV
vector 469 World.node[254].appl.middleware.ExampleService proof_requested ETV
421	70129 65 13356390 14330019 910.091409061803 970.091409061803 2 8 13 21 233
420	70194 64 13356390 14330019 910.091409061803 970.091409061803 2 2 5 7 29
403	70258 97 12421377 14502699 861.027968808822 981.027968808822 3 7 18 33 437
402	70355 96 12421377 14502699 861.027968808822 981.027968808822 3 2 5 9 33
397	70451 99 12333731 14444683 857.097303638048 977.097303638048 3 14 16 44 648
396	70550 96 12333731 14444683 857.097303638048 977.097303638048 3 2 6 11 49
vector 470 World.node[255].appl.middleware.ExampleService proof_size ETV
vector 471 World.node[255].appl.middleware.ExampleService proof_requested ETV
439	70797 65 13906915 14834491 945.096030657995 1005.096030657995 2 5 6 11 61
438	70862 65 13906915 14834491 945.096030657995 1005.096030657995 2 2 2 4 8
vector 472 World.node[251].appl.middleware.ExampleService proof_size ETV
vector 473 World.node[251].appl.middleware.ExampleService proof_requested ETV
vector 474 World.node[250].appl.middleware.ExampleService proof_size ETV
vector 475 World.node[250].appl.middleware.ExampleService proof_requested ETV
vector 476 World.node[252].appl.middleware.ExampleService proof_size ETV
vector 477 World.node[252].appl.middleware.ExampleService proof_requested ETV
419	71380 65 13317949 14345238 908.064518516177 971.064147480088 2 1 11 12 122
418	71445 64 13317949 14345238 908.064518516177 971.064147480088 2 1 4 5 17
vector 478 World.node[259].appl.middleware.ExampleService proof_size ETV
vector 479 World.node[259].appl.middleware.ExampleService proof_requested ETV
vector 480 World.node[260].appl.middleware.ExampleService proof_size ETV
vector 481 World.node[260].appl.middleware.ExampleService proof_requested ETV
353	71811 163 10513490 14807929 760.04985196036 1003.003134503798 5 2 17 51 655
352	71974 160 10513490 14807929 760.04985196036 1003.003134503798 5 1 3 11 27
vector 482 World.node[266].appl.middleware.ExampleService proof_size ETV
vector 483 World.node[266].appl.middleware.ExampleService proof_requested ETV
391	72285 131 12212858 15153889 851.046937109111 1031.046937109111 4 4 21 46 690
390	72416 130 12212858 15153889 851.046937109111 1031.046937109111 4 2 10 23 169
399	72546 130 12357794 15288077 858.081463632083 1041.043810472381 4 3 10 26 194
398	72676 129 12357794 15288077 858.081463632083 1041.043810472381 4 2 4 12 38
463	72805 34 14820199 14820199 1004.031175278733 1004.031175278733 1 10 10 10 100
462	72839 33 14820199 14820199 1004.031175278733 1004.031175278733 1 2 2 2 4
vector 484 World.node[258].appl.middleware.ExampleService proof_size ETV
vector 485 World.node[258].appl.middleware.ExampleService proof_requested ETV
317	73023 226 9376009 15510857 695.046381936944 1055.046381936944 7 4 18 68 834
316	73249 224 9376009 15510857 695.046381936944 1055.046381936944 7 0 10 28 174
429	73473 98 13466798 15215882 916.017790131317 1036.017790131317 3 4 13 26 266
428	73571 97 13466798 15215882 916.017790131317 1036.017790131317 3 1 4 9 33
477	73668 33 15128799 15128799 1029.004717252241 1029.004717252241 1 7 7 7 49
476	73701 33 15128799 15128799 1029.004717252241 1029.004717252241 1 2 2 2 4
447	73734 66 14222895 15069461 964.091988834739 1024.091988834739 2 3 13 16 178
446	73800 65 14222895 15069461 964.091988834739 1024.091988834739 2 1 4 5 17
475	73865 34 15118820 15118820 1028.053649204643 1028.053649204643 1 13 13 13 169
474	73899 34 15118820 15118820 1028.053649204643 1028.053649204643 1 11 11 11 121
455	73933 66 14531210 15321754 983.075666286191 1043.075666286191 2 4 19 23 377
454	73999 65 14531210 15321754 983.075666286191 1043.075666286191 2 2 4 6 20
vector 486 World.node[265].appl.middleware.ExampleService proof_size ETV
vector 487 World.node[265].appl.middleware.ExampleService proof_requested ETV
vector 488 World.node[264].appl.middleware.ExampleService proof_size ETV
vector 489 World.node[264].appl.middleware.ExampleService proof_requested ETV
vector 490 World.node[268].appl.middleware.ExampleService proof_size ETV
vector 491 World.node[268].appl.middleware.ExampleService proof_requested ETV
vector 492 World.node[261].appl.middleware.ExampleService proof_size ETV
vector 493 World.node[261].appl.middleware.ExampleService proof_requested ETV
441	74668 100 14092805 15771330 956.070215074066 1076.070215074066 3 3 13 27 299
440	74768 98 14092805 15771330 956.070215074066 1076.070215074066 3 2 6 12 56
485	74866 33 15570899 15570899 1059.042653253107 1059.042653253107 1 2 2 2 4
484	74899 33 15570899 15570899 1059.042653253107 1059.042653253107 1 2 2 2 4
vector 494 World.node[262].appl.middleware.ExampleService proof_size ETV
vector 495 World.node[262].appl.middleware.ExampleService proof_requested ETV
459	75083 67 14682161 15497071 994.020208227681 1054.020208227681 2 10 16 26 356
458	75150 65 14682161 15497071 994.020208227681 1054.020208227681 2 3 4 7 25
425	75215 98 13409368 15176365 913.011205327604 1033.011205327604 3 4 14 26 276
424	75313 97 13409368 15176365 913.011205327604 1033.011205327604 3 1 4 6 18
471	75410 66 15069458 15868249 1024.083547164872 1084.083547164872 2 6 9 15 117
470	75476 66 15069458 15868249 1024.083547164872 1084.083547164872 2 1 1 2 2
vector 496 World.node[273].appl.middleware.ExampleService proof_size ETV
vector 497 World.node[273].appl.middleware.ExampleService proof_requested ETV
vector 498 World.node[256].appl.middleware.ExampleService proof_size ETV
vector 499 World.node[256].appl.middleware.ExampleService proof_requested ETV
423	75844 132 13391306 15975738 912.031720892852 1092.031720892852 4 8 14 43 485
422	75976 130 13391306 15975738 912.031720892852 1092.031720892852 4 4 7 23 139
451	76106 99 14429038 16029654 976.047457411094 1096.047457411094 3 5 10 22 174
450	76205 98 14429038 16029654 976.047457411094 1096.047457411094 3 0 5 9 41
vector 500 World.node[271].appl.middleware.ExampleService proof_size ETV
vector 501 World.node[271].appl.middleware.ExampleService proof_requested ETV
vector 502 World.node[267].appl.middleware.ExampleService proof_size ETV
vector 503 World.node[267].appl.middleware.ExampleService proof_requested ETV
vector 504 World.node[276].appl.middleware.ExampleService proof_size ETV
vector 505 World.node[276].appl.middleware.ExampleService proof_requested ETV
vector 506 World.node[270].appl.middleware.ExampleService proof_size ETV
vector 507 World.node[270].appl.middleware.ExampleService proof_requested ETV
443	76907 93 14107863 15779214 957.0169864567 1077.0169864567 3 2 12 18 164
442	77000 92 14107863 15779214 957.0169864567 1077.0169864567 3 1 4 7 21
vector 508 World.node[280].appl.middleware.ExampleService proof_size ETV
vector 509 World.node[280].appl.middleware.ExampleService proof_requested ETV
vector 510 World.node[272].appl.middleware.ExampleService proof_size ETV
vector 511 World.node[272].appl.middleware.ExampleService proof_requested ETV
vector 512 World.node[269].appl.middleware.ExampleService proof_size ETV
vector 513 World.node[269].appl.middleware.ExampleService proof_requested ETV
427	77545 132 13427400 16001429 914.032272420637 1094.032272420637 4 3 19 47 707
426	77677 130 13427400 16001429 914.032272420637 1094.032272420637 4 2 6 16 80
vector 514 World.node[277].appl.middleware.ExampleService proof_size ETV
vector 515 World.node[277].appl.middleware.ExampleService proof_requested ETV
vector 516 World.node[283].appl.middleware.ExampleService proof_size ETV
vector 517 World.node[283].appl.middleware.ExampleService proof_requested ETV
vector 518 World.node[284].appl.middleware.ExampleService proof_size ETV
vector 519 World.node[284].appl.middleware.ExampleService proof_requested ETV
vector 520 World.node[281].appl.middleware.ExampleService proof_size ETV
vector 521 World.node[281].appl.middleware.ExampleService proof_requested ETV
457	78411 99 14555392 16107696 985.040711403266 1102.149362436823 3 2 19 29 429
456	78510 98 14555392 16107696 985.040711403266 1102.149362436823 3 2 6 11 49
513	78608 33 16362472 16362472 1124.023830069904 1124.023830069904 1 6 6 6 36
512	78641 33 16362472 16362472 1124.023830069904 1124.023830069904 1 1 1 1 1
vector 522 World.node[275].appl.middleware.ExampleService proof_size ETV
vector 523 World.node[275].appl.middleware.ExampleService proof_requested ETV
vector 524 World.node[279].appl.middleware.ExampleService proof_size ETV
vector 525 World.node[279].appl.middleware.ExampleService proof_requested ETV
483	78976 66 15337577 16125457 1044.044760337751 1104.044760337751 2 6 9 15 117
482	79042 66 15337577 16125457 1044.044760337751 1104.044760337751 2 2 3 5 13
445	79108 129 14207500 16658541 963.06801547436 1143.06801547436 4 3 12 28 242
444	79237 128 14207500 16658541 963.06801547436 1143.06801547436 4 0 8 13 77
407	79365 161 12574163 16170496 868.14880149262 1108.04880149262 5 8 18 64 874
406	79526 157 12574163 16170496 868.14880149262 1108.04880149262 5 0 8 16 90
vector 526 World.node[285].appl.middleware.ExampleService proof_size ETV
vector 527 World.node[285].appl.middleware.ExampleService proof_requested ETV
vector 528 World.node[274].appl.middleware.ExampleService proof_size ETV
vector 529 World.node[274].appl.middleware.ExampleService proof_requested ETV
vector 530 World.node[287].appl.middleware.ExampleService proof_size ETV
vector 531 World.node[287].appl.middleware.ExampleService proof_requested ETV
437	80136 131 13810828 16302373 939.051621528249 1119.051621528249 4 2 19 38 510
436	80267 131 13810828 16302373 939.051621528249 1119.051621528249 4 0 11 17 139
vector 532 World.node[293].appl.middleware.ExampleService proof_size ETV
vector 533 World.node[293].appl.middleware.ExampleService proof_requested ETV
491	80549 65 15738493 16544425 1073.08026552772 1136.019899569103 2 1 7 8 50
490	80614 65 15738493 16544425 1073.08026552772 1136.019899569103 2 1 1 2 2
vector 534 World.node[286].appl.middleware.ExampleService proof_size ETV
vector 535 World.node[286].appl.middleware.ExampleService proof_requested ETV
431	80830 165 13484018 16882884 917.058120095241 1157.058120095241 5 5 13 45 439
430	80995 163 13484018 16882884 917.058120095241 1157.058120095241 5 0 6 16 72
529	81158 34 16897480 16897480 1158.089249452366 1158.089249452366 1 10 10 10 100
528	81192 33 16897480 16897480 1158.089249452366 1158.089249452366 1 3 3 3 9
vector 536 World.node[292].appl.middleware.ExampleService proof_size ETV
vector 537 World.node[292].appl.middleware.ExampleService proof_requested ETV
469	81376 101 14973176 16544937 1016.029540255736 1136.029540255736 3 8 14 34 404
468	81477 99 14973176 16544937 1016.029540255736 1136.029540255736 3 4 5 14 66
503	81576 67 16106522 16956799 1102.070277017727 1162.070277017727 2 9 10 19 181
502	81643 66 16106522 16956799 1102.070277017727 1162.070277017727 2 3 7 10 58
vector 538 World.node[282].appl.middleware.ExampleService proof_size ETV
vector 539 World.node[282].appl.middleware.ExampleService proof_requested ETV
511	81860 68 16290249 17218534 1118.049285216373 1178.049285216373 2 11 12 23 265
510	81928 66 16290249 17218534 1118.049285216373 1178.049285216373 2 5 5 10 50
523	81994 34 16559155 16559155 1137.007624314656 1137.007624314656 1 19 19 19 361
522	82028 33 16559155 16559155 1137.007624314656 1137.007624314656 1 7 7 7 49
vector 540 World.node[288].appl.middleware.ExampleService proof_size ETV
vector 541 World.node[288].appl.middleware.ExampleService proof_requested ETV
vector 542 World.node[290].appl.middleware.ExampleService proof_size ETV
vector 543 World.node[290].appl.middleware.ExampleService proof_requested ETV
vector 544 World.node[294].appl.middleware.ExampleService proof_size ETV
vector 545 World.node[294].appl.middleware.ExampleService proof_requested ETV
vector 546 World.node[296].appl.middleware.ExampleService proof_size ETV
vector 547 World.node[296].appl.middleware.ExampleService proof_requested ETV
539	82665 33 17235775 17235775 1179.008910944057 1179.008910944057 1 9 9 9 81
538	82698 33 17235775 17235775 1179.008910944057 1179.008910944057 1 4 4 4 16
413	82731 198 12651880 17101039 872.035921074497 1172.035921074497 6 2 21 62 832
412	82929 195 12651880 17101039 872.035921074497 1172.035921074497 6 0 8 18 94
vector 548 World.node[300].appl.middleware.ExampleService proof_size ETV
vector 549 World.node[300].appl.middleware.ExampleService proof_requested ETV
461	83275 133 14685013 17144306 994.090845103608 1174.090845103608 4 4 19 46 666
460	83408 131 14685013 17144306 994.090845103608 1174.090845103608 4 2 7 18 98
vector 550 World.node[298].appl.middleware.ExampleService proof_size ETV
vector 551 World.node[298].appl.middleware.ExampleService proof_requested ETV
525	83690 34 16609297 16609297 1140.046144728549 1140.046144728549 1 12 12 12 144
[...]
vector 1718 World.node[897].appl.middleware.ExampleService proof_size ETV
vector 1719 World.node[897].appl.middleware.ExampleService proof_requested ETV
1649	284308 105 61168073 64996453 3343.006113177608 3463.006113177608 3 12 21 45 729
1648	284413 102 61168073 64996453 3343.006113177608 3463.006113177608 3 4 6 14 68
1671	284515 69 62155153 64240741 3376.097263317532 3436.097263317532 2 8 15 23 289
1670	284584 68 62155153 64240741 3376.097263317532 3436.097263317532 2 1 6 7 37
vector 1720 World.node[909].appl.middleware.ExampleService proof_size ETV
vector 1721 World.node[909].appl.middleware.ExampleService proof_requested ETV
1563	284805 209 57206217 65636228 3182.014573741308 3482.014573741308 6 2 25 88 1598
1562	285014 204 57206217 65636228 3182.014573741308 3482.014573741308 6 1 5 19 75
vector 1722 World.node[902].appl.middleware.ExampleService proof_size ETV
vector 1723 World.node[902].appl.middleware.ExampleService proof_requested ETV
vector 1724 World.node[906].appl.middleware.ExampleService proof_size ETV
vector 1725 World.node[906].appl.middleware.ExampleService proof_requested ETV
vector 1726 World.node[904].appl.middleware.ExampleService proof_size ETV
vector 1727 World.node[904].appl.middleware.ExampleService proof_requested ETV
1679	285677 68 63017373 64911105 3400.002200611006 3460.002200611006 2 3 9 12 90
1678	285745 68 63017373 64911105 3400.002200611006 3460.002200611006 2 2 2 4 8
1681	285813 70 63292651 65158029 3408.078921634029 3468.078921634029 2 17 19 36 650
1680	285883 69 63292651 65158029 3408.078921634029 3468.078921634029 2 3 12 15 153
1641	285952 101 60732850 64636644 3330.02877209615 3450.02877209615 3 7 18 43 697
1640	286053 99 60732850 64636644 3330.02877209615 3450.02877209615 3 3 6 13 61
1695	286152 69 63637598 65538967 3419.034275517846 3479.034275517846 2 5 21 26 466
1694	286221 68 63637598 65538967 3419.034275517846 3479.034275517846 2 0 4 4 16
vector 1728 World.node[911].appl.middleware.ExampleService proof_size ETV
vector 1729 World.node[911].appl.middleware.ExampleService proof_requested ETV
1689	286442 69 63440822 65222947 3413.065043920348 3470.088877311273 2 2 22 24 488
1688	286511 68 63440822 65222947 3413.065043920348 3470.088877311273 2 2 8 10 68
1635	286579 133 60051405 65744505 3305.05458812078 3485.05458812078 4 2 26 43 793
1634	286712 132 60051405 65744505 3305.05458812078 3485.05458812078 4 1 6 14 62
1683	286844 68 63350395 65215882 3410.00528127898 3470.00528127898 2 13 16 29 425
1682	286912 67 63350395 65215882 3410.00528127898 3470.00528127898 2 6 10 16 136
vector 1730 World.node[916].appl.middleware.ExampleService proof_size ETV
vector 1731 World.node[916].appl.middleware.ExampleService proof_requested ETV
1685	287132 67 63357714 65221452 3410.06563319827 3470.06563319827 2 6 22 28 520
1684	287199 66 63357714 65221452 3410.06563319827 3470.06563319827 2 1 3 4 10
1633	287265 140 60050666 65743455 3305.048554381123 3485.048554381123 4 10 26 70 1386
1632	287405 138 60050666 65743455 3305.048554381123 3485.048554381123 4 0 15 29 341
vector 1732 World.node[914].appl.middleware.ExampleService proof_size ETV
vector 1733 World.node[914].appl.middleware.ExampleService proof_requested ETV
vector 1734 World.node[905].appl.middleware.ExampleService proof_size ETV
vector 1735 World.node[905].appl.middleware.ExampleService proof_requested ETV
1665	287849 103 61948605 65959732 3369.114413190292 3492.054050510237 3 1 15 20 242
1664	287952 102 61948605 65959732 3369.114413190292 3492.054050510237 3 1 9 12 86
1547	288054 243 56556643 66196820 3146.019141708966 3503.019512068768 7 1 20 97 1811
1546	288297 238 56556643 66196820 3146.019141708966 3503.019512068768 7 0 7 20 100
1631	288535 139 59938457 65611572 3301.083207209501 3481.083207209501 4 8 20 63 1077
1630	288674 136 59938457 65611572 3301.083207209501 3481.083207209501 4 1 5 13 51
vector 1736 World.node[910].appl.middleware.ExampleService proof_size ETV
vector 1737 World.node[910].appl.middleware.ExampleService proof_requested ETV
vector 1738 World.node[907].appl.middleware.ExampleService proof_size ETV
vector 1739 World.node[907].appl.middleware.ExampleService proof_requested ETV
1639	289116 140 60605548 66237399 3325.016242860677 3505.016242860677 4 11 26 75 1521
1638	289256 136 60605548 66237399 3325.016242860677 3505.016242860677 4 2 5 13 47
1625	289392 140 59784272 65436442 3296.071436704788 3476.071436704788 4 18 21 79 1567
1624	289532 136 59784272 65436442 3296.071436704788 3476.071436704788 4 2 7 18 98
1737	289668 35 66372820 66372820 3512.054779604124 3512.054779604124 1 22 22 22 484
1736	289703 34 66372820 66372820 3512.054779604124 3512.054779604124 1 5 5 5 25
vector 1740 World.node[918].appl.middleware.ExampleService proof_size ETV
vector 1741 World.node[918].appl.middleware.ExampleService proof_requested ETV
1457	289890 348 52542241 66086501 2958.025644773664 3498.025644773664 10 2 30 158 3038
1456	290238 341 52542241 66086501 2958.025644773664 3498.025644773664 10 0 16 50 432
vector 1742 World.node[913].appl.middleware.ExampleService proof_size ETV
vector 1743 World.node[913].appl.middleware.ExampleService proof_requested ETV
vector 1744 World.node[919].appl.middleware.ExampleService proof_size ETV
vector 1745 World.node[919].appl.middleware.ExampleService proof_requested ETV
1551	290885 243 56724767 66451782 3155.097885662271 3515.097885662271 7 2 35 111 2447
1550	291128 238 56724767 66451782 3155.097885662271 3515.097885662271 7 2 8 32 174
1647	291366 138 61106480 66586076 3341.053969837539 3521.053969837539 4 6 16 42 524
1646	291504 136 61106480 66586076 3341.053969837539 3521.053969837539 4 1 4 9 27
vector 1746 World.node[920].appl.middleware.ExampleService proof_size ETV
vector 1747 World.node[920].appl.middleware.ExampleService proof_requested ETV
1677	291793 101 62983515 66541314 3399.02224046404 3519.02224046404 3 8 23 53 1077
1676	291894 100 62983515 66541314 3399.02224046404 3519.02224046404 3 4 10 22 180
1571	291994 209 57590921 66220332 3204.090935921296 3504.090935921296 6 6 24 82 1298
1570	292203 205 57590921 66220332 3204.090935921296 3504.090935921296 6 4 10 36 246
vector 1748 World.node[912].appl.middleware.ExampleService proof_size ETV
vector 1749 World.node[912].appl.middleware.ExampleService proof_requested ETV
1667	292561 104 62059651 65987027 3373.087992280326 3493.087992280326 3 5 14 32 390
1666	292665 102 62059651 65987027 3373.087992280326 3493.087992280326 3 1 7 9 51
vector 1750 World.node[921].appl.middleware.ExampleService proof_size ETV
vector 1751 World.node[921].appl.middleware.ExampleService proof_requested ETV
vector 1752 World.node[915].appl.middleware.ExampleService proof_size ETV
vector 1753 World.node[915].appl.middleware.ExampleService proof_requested ETV
vector 1754 World.node[930].appl.middleware.ExampleService proof_size ETV
vector 1755 World.node[930].appl.middleware.ExampleService proof_requested ETV
vector 1756 World.node[927].appl.middleware.ExampleService proof_size ETV
vector 1757 World.node[927].appl.middleware.ExampleService proof_requested ETV
vector 1758 World.node[926].appl.middleware.ExampleService proof_size ETV
vector 1759 World.node[926].appl.middleware.ExampleService proof_requested ETV
1739	293532 35 66395623 66395623 3513.007076542219 3513.007076542219 1 14 14 14 196
1738	293567 34 66395623 66395623 3513.007076542219 3513.007076542219 1 1 1 1 1
vector 1760 World.node[934].appl.middleware.ExampleService proof_size ETV
vector 1761 World.node[934].appl.middleware.ExampleService proof_requested ETV
vector 1762 World.node[925].appl.middleware.ExampleService proof_size ETV
vector 1763 World.node[925].appl.middleware.ExampleService proof_requested ETV
vector 1764 World.node[922].appl.middleware.ExampleService proof_size ETV
vector 1765 World.node[922].appl.middleware.ExampleService proof_requested ETV
vector 1766 World.node[923].appl.middleware.ExampleService proof_size ETV
vector 1767 World.node[923].appl.middleware.ExampleService proof_requested ETV
1711	294213 67 64918486 66626224 3460.069942953516 3523.00957591706 2 1 6 7 37
1710	294280 67 64918486 66626224 3460.069942953516 3523.00957591706 2 1 4 5 17
1669	294347 133 62148078 67301287 3376.00796603607 3556.00796603607 4 2 16 28 318
1668	294480 132 62148078 67301287 3376.00796603607 3556.00796603607 4 0 4 5 17
vector 1768 World.node[928].appl.middleware.ExampleService proof_size ETV
vector 1769 World.node[928].appl.middleware.ExampleService proof_requested ETV
1707	294765 105 64509713 67531186 3445.037853037124 3565.037853037124 3 16 20 53 945
1706	294870 102 64509713 67531186 3445.037853037124 3565.037853037124 3 0 3 4 10
1713	294972 69 64969425 66605094 3462.015483246627 3522.015483246627 2 7 15 22 274
1712	295041 68 64969425 66605094 3462.015483246627 3522.015483246627 2 3 5 8 34
1701	295109 105 63902176 67078304 3426.001884861966 3546.001884861966 3 13 22 54 1014
1700	295214 102 63902176 67078304 3426.001884861966 3546.001884861966 3 0 5 10 50
1715	295316 68 64973910 66609032 3462.091428181971 3522.091428181971 2 4 9 13 97
1714	295384 68 64973910 66609032 3462.091428181971 3522.091428181971 2 3 5 8 34
1589	295452 209 58316427 66926962 3238.072483221698 3538.072483221698 6 7 22 101 1833
1588	295661 204 58316427 66926962 3238.072483221698 3538.072483221698 6 0 6 12 50
1657	295865 138 61528932 66908055 3354.128812481727 3537.068450790853 4 1 34 57 1449
1656	296003 136 61528932 66908055 3354.128812481727 3537.068450790853 4 1 6 14 62
1749	296139 35 66828343 66828343 3533.065823953273 3533.065823953273 1 13 13 13 169
1748	296174 34 66828343 66828343 3533.065823953273 3533.065823953273 1 2 2 2 4
vector 1770 World.node[924].appl.middleware.ExampleService proof_size ETV
vector 1771 World.node[924].appl.middleware.ExampleService proof_requested ETV
1687	296361 101 63410754 66811141 3412.01427662815 3532.01427662815 3 7 19 42 666
1686	296462 99 63410754 66811141 3412.01427662815 3532.01427662815 3 3 5 13 59
1573	296561 244 57609396 67530051 3205.007580371527 3565.007580371527 7 3 28 137 3055
1572	296805 238 57609396 67530051 3205.007580371527 3565.007580371527 7 1 6 24 100
vector 1772 World.node[931].appl.middleware.ExampleService proof_size ETV
vector 1773 World.node[931].appl.middleware.ExampleService proof_requested ETV
1735	297196 69 66197645 67476996 3503.054625432473 3563.054625432473 2 9 10 19 181
1734	297265 68 66197645 67476996 3503.054625432473 3563.054625432473 2 3 7 10 58
vector 1774 World.node[932].appl.middleware.ExampleService proof_size ETV
vector 1775 World.node[932].appl.middleware.ExampleService proof_requested ETV
vector 1776 World.node[936].appl.middleware.ExampleService proof_size ETV
vector 1777 World.node[936].appl.middleware.ExampleService proof_requested ETV
vector 1778 World.node[935].appl.middleware.ExampleService proof_size ETV
vector 1779 World.node[935].appl.middleware.ExampleService proof_requested ETV
vector 1780 World.node[937].appl.middleware.ExampleService proof_size ETV
vector 1781 World.node[937].appl.middleware.ExampleService proof_requested ETV
1581	297945 244 57847899 67767070 3216.002155976417 3576.002155976417 7 7 19 106 1708
1580	298189 238 57847899 67767070 3216.002155976417 3576.002155976417 7 1 7 30 150
vector 1782 World.node[933].appl.middleware.ExampleService proof_size ETV
vector 1783 World.node[933].appl.middleware.ExampleService proof_requested ETV
vector 1784 World.node[939].appl.middleware.ExampleService proof_size ETV
vector 1785 World.node[939].appl.middleware.ExampleService proof_requested ETV
1703	298733 138 64043610 68467098 3430.017350135208 3610.017350135208 4 2 22 44 720
1702	298871 136 64043610 68467098 3430.017350135208 3610.017350135208 4 0 5 10 42
1705	299007 139 64045356 68468135 3430.038208744768 3610.038208744768 4 8 21 56 870
1704	299146 136 64045356 68468135 3430.038208744768 3610.038208744768 4 4 7 21 115
1743	299282 68 66693309 67964482 3526.051357819326 3586.051357819326 2 7 9 16 130
1742	299350 68 66693309 67964482 3526.051357819326 3586.051357819326 2 3 5 8 34
1723	299418 104 65683929 68300656 3483.067855755682 3603.067855755682 3 2 12 26 292
1722	299522 102 65683929 68300656 3483.067855755682 3603.067855755682 3 1 6 12 62
1759	299624 70 67217054 68512198 3552.085263648676 3612.085263648676 2 17 20 37 689
1758	299694 68 67217054 68512198 3552.085263648676 3612.085263648676 2 3 4 7 25
1621	299762 208 59568932 68001468 3288.007942408812 3588.007942408812 6 6 31 77 1415
1620	299970 204 59568932 68001468 3288.007942408812 3588.007942408812 6 1 8 21 107
1763	300174 69 67421884 68674997 3561.043314359197 3621.043314359197 2 1 11 12 122
1762	300243 68 67421884 68674997 3561.043314359197 3621.043314359197 2 0 7 7 49
1591	300311 244 58337121 68210776 3239.089082112047 3599.089082112047 7 3 21 108 1906
1590	300555 238 58337121 68210776 3239.089082112047 3599.089082112047 7 0 7 24 116
1777	300793 33 68089326 68089326 3593.03002632577 3593.03002632577 1 3 3 3 9
1776	300826 33 68089326 68089326 3593.03002632577 3593.03002632577 1 1 1 1 1
1717	300859 103 65219513 68037937 3470.045916125691 3590.045916125691 3 6 12 26 244
1716	300962 102 65219513 68037937 3470.045916125691 3590.045916125691 3 2 3 7 17
vector 1786 World.node[941].appl.middleware.ExampleService proof_size ETV
vector 1787 World.node[941].appl.middleware.ExampleService proof_requested ETV
1753	301217 68 67024365 68231731 3543.087422076683 3600.103428583491 2 1 6 7 37
1752	301285 68 67024365 68231731 3543.087422076683 3600.103428583491 2 0 1 1 1
vector 1788 World.node[938].appl.middleware.ExampleService proof_size ETV
vector 1789 World.node[938].appl.middleware.ExampleService proof_requested ETV
vector 1790 World.node[942].appl.middleware.ExampleService proof_size ETV
vector 1791 World.node[942].appl.middleware.ExampleService proof_requested ETV
vector 1792 World.node[940].appl.middleware.ExampleService proof_size ETV
vector 1793 World.node[940].appl.middleware.ExampleService proof_requested ETV
1747	301812 70 66736573 68004401 3528.091236495506 3588.091236495506 2 13 25 38 794
1746	301882 68 66736573 68004401 3528.091236495506 3588.091236495506 2 2 8 10 68
vector 1794 World.node[943].appl.middleware.ExampleService proof_size ETV
vector 1795 World.node[943].appl.middleware.ExampleService proof_requested ETV
1767	302103 69 67504177 68733045 3564.073631651606 3624.073631651606 2 4 11 15 137
1766	302172 68 67504177 68733045 3564.073631651606 3624.073631651606 2 1 3 4 10
1783	302240 68 68299680 69176141 3603.056231303583 3660.175348432033 2 2 9 11 85
1782	302308 68 68299680 69176141 3603.056231303583 3660.175348432033 2 2 3 5 13
1721	302376 139 65610940 69188236 3481.077110188291 3661.077110188291 4 7 22 50 754
1720	302515 136 65610940 69188236 3481.077110188291 3661.077110188291 4 2 6 15 65
1587	302651 278 58314900 69147206 3238.044728574669 3658.044728574669 8 5 31 115 2123
1586	302929 272 58314900 69147206 3238.044728574669 3658.044728574669 8 1 8 32 176
1725	303201 140 65685615 69212285 3483.095093967626 3663.095093967626 4 12 24 75 1481
1724	303341 136 65685615 69212285 3483.095093967626 3663.095093967626 4 0 8 11 73
1771	303477 69 67728296 68871578 3574.087370668468 3634.087370668468 2 6 10 16 136
1770	303546 68 67728296 68871578 3574.087370668468 3634.087370668468 2 0 2 2 4
1755	303614 104 67147171 69283393 3549.044265953405 3669.044265953405 3 6 14 31 353
1754	303718 102 67147171 69283393 3549.044265953405 3669.044265953405 3 1 6 12 62
1693	303820 174 63581159 69136867 3417.082919102465 3657.082919102465 5 6 25 76 1410
1692	303994 170 63581159 69136867 3417.082919102465 3657.082919102465 5 0 6 10 42
1757	304164 102 67213051 69282601 3552.001100641699 3669.001471096905 3 1 9 18 146
1756	304266 102 67213051 69282601 3552.001100641699 3669.001471096905 3 1 3 5 11
1789	304368 68 68934873 69496602 3639.081254644808 3696.158555333394 2 1 7 8 50
1788	304436 68 68934873 69496602 3639.081254644808 3696.158555333394 2 1 3 4 10
1775	304504 69 68075577 69074840 3592.058160998044 3652.058160998044 2 4 17 21 305
1774	304573 68 68075577 69074840 3592.058160998044 3652.058160998044 2 2 5 7 29
1791	304641 68 68984101 69520153 3643.079853526945 3700.140218992256 2 1 9 10 82
1790	304709 68 68984101 69520153 3643.079853526945 3700.140218992256 2 1 3 4 10
1773	304777 69 68020271 69550986 3589.057598972553 3706.057968086586 2 1 20 21 401
1772	304846 68 68020271 69550986 3589.057598972553 3706.057968086586 2 1 7 8 50
1727	304914 140 65739852 69233394 3485.002104522381 3665.002104522381 4 15 26 80 1662
1726	305054 136 65739852 69233394 3485.002104522381 3665.002104522381 4 0 7 12 62
1719	305190 138 65469086 69135467 3477.036855407921 3657.036855407921 4 3 25 42 750
1718	305328 136 65469086 69135467 3477.036855407921 3657.036855407921 4 1 8 17 105
1795	305464 68 69044789 69565367 3649.009012968908 3709.009012968908 2 4 9 13 97
1794	305532 68 69044789 69565367 3649.009012968908 3709.009012968908 2 1 2 3 5
1779	305600 104 68154697 69592912 3596.072272956977 3716.072272956977 3 9 20 41 625
1778	305704 102 68154697 69592912 3596.072272956977 3716.072272956977 3 1 4 8 26
1741	305806 137 66572228 69520019 3520.189805768542 3700.118273244732 4 2 14 24 234
1740	305943 136 66572228 69520019 3520.189805768542 3700.118273244732 4 2 5 12 42
1697	306079 210 63797954 69615572 3423.070386177045 3723.070386177045 6 12 30 120 2730
1696	306289 205 63797954 69615572 3423.070386177045 3723.070386177045 6 2 13 41 351
1751	306494 131 66965086 69615502 3540.106025036763 3723.0551352337 4 2 13 27 263
1750	306625 130 66965086 69615502 3540.106025036763 3723.0551352337 4 0 6 9 41
1731	306755 137 66051806 69349191 3496.129019406275 3676.029019406275 4 4 12 25 201
1730	306892 136 66051806 69349191 3496.129019406275 3676.029019406275 4 1 3 8 18
1793	307028 103 68986436 69745398 3643.098439216567 3763.098439216567 3 1 17 21 299
1792	307131 102 68986436 69745398 3643.098439216567 3763.098439216567 3 0 4 4 16
1785	307233 102 68467380 69636732 3610.019167517731 3730.019167517731 3 1 7 11 59
1784	307335 102 68467380 69636732 3610.019167517731 3730.019167517731 3 1 4 7 21
1675	307437 209 62945615 69506877 3398.026366167516 3698.026366167516 6 7 17 75 1015
1674	307646 204 62945615 69506877 3398.026366167516 3698.026366167516 6 2 7 24 114
1709	307850 209 64558861 69687840 3447.051523125474 3747.051523125474 6 8 21 91 1509
1708	308059 204 64558861 69687840 3447.051523125474 3747.051523125474 6 0 8 27 169
1729	308263 207 65937054 69789964 3491.064540249412 3791.064540249412 6 5 20 69 1003
1728	308470 204 65937054 69789964 3491.064540249412 3791.064540249412 6 0 6 18 86
1781	308674 137 68190507 69771305 3598.000520164124 3778.000520164124 4 2 11 23 193
1780	308811 136 68190507 69771305 3598.000520164124 3778.000520164124 4 0 1 3 3
1699	308947 243 63873275 69777593 3425.077429342177 3782.160634495851 7 1 31 101 2205
1698	309190 238 63873275 69777593 3425.077429342177 3782.160634495851 7 0 9 26 176
1769	309428 172 67550753 69805121 3566.030412739539 3806.030412739539 5 2 18 47 573
1768	309600 170 67550753 69805121 3566.030412739539 3806.030412739539 5 0 5 7 29
1761	309770 206 67402664 69846748 3560.211546051574 3863.098003700632 6 2 24 53 833
1760	309976 204 67402664 69846748 3560.211546051574 3863.098003700632 6 0 8 17 97
1691	310180 243 63576963 69824181 3417.050914285448 3834.083571922582 7 2 28 104 2192
1690	310423 238 63576963 69824181 3417.050914285448 3834.083571922582 7 2 5 22 82
1733	310661 242 66157346 69845660 3501.189129697608 3861.147186294303 7 1 21 70 1164
1732	310903 238 66157346 69845660 3501.189129697608 3861.147186294303 7 1 5 17 61
1745	311141 206 66694984 69816347 3526.084204748296 3823.084575006299 6 1 26 66 1132
1744	311347 204 66694984 69816347 3526.084204748296 3823.084575006299 6 0 8 13 71
1765	311551 207 67475550 69846670 3563.023464494338 3863.023464494338 6 3 18 59 769
1764	311758 204 67475550 69846670 3563.023464494338 3863.023464494338 6 0 4 10 34
1787	311962 172 68844742 69850116 3632.058290634956 3872.058290634956 5 2 17 39 445
1786	312134 170 68844742 69850116 3632.058290634956 3872.058290634956 5 0 3 6 14

