version 2
run Obstacles-1-20191117-12:20:37-19092
attr configname Obstacles
attr datetime 20191117-12:20:37
attr experiment Obstacles
attr inifile omnetpp.ini
attr iterationvars $0=40
attr iterationvarsf 40-
attr measurement $0=40
attr network artery.veins.World
attr processid 19092
attr repetition 0
attr replication #0
attr resultdir results
attr runnumber 1
attr seedset 1
param *.traci.launcher.sumocfg "\"Obstacles/run.sumo.cfg\""
param *.withObstacles true
param *.obstacles.obstacles "xmldoc(\"config_obstacles.xml\", \"//AnalogueModel[@type='SimpleObstacleShadowing']/obstacles\")"
param *.node[*].nic.mac1609_4.txPower 20mW
param *.node[*].nic.phy80211p.decider "xmldoc(\"config_obstacles.xml\")"
param *.node[*].nic.phy80211p.analogueModels "xmldoc(\"config_obstacles.xml\")"
param *.node[*].applType "\"artery.veins.ApplicationLayer\""
param *.node[*].appl.middleware.updateInterval 0.1s
param *.node[*].appl.middleware.datetime "\"2013-06-01 12:35:00\""
param *.node[*].appl.middleware.services "xmldoc(\"services.xml\")"
param *.node[*].appl.middleware.ExampleService.DecisionLogic 40
param *.node[*].appl.middleware.ExampleService.NeighboringWindow 60
param *.traci.core.version -1
param *.traci.launcher.typename "\"PosixLauncher\""
param *.playgroundSizeX 4000m
param *.playgroundSizeY 4000m
param *.playgroundSizeZ 50m
param *.connectionManager.maxInterfDist 1500m
param *.connectionManager.sendDirect true
param *.connectionManager.coreDebug false

vector 0 World.node[2].appl.middleware.ExampleService proof_size ETV
vector 1 World.node[2].appl.middleware.ExampleService proof_requested ETV
1	4143	20.012715997174	1
0	4143	20.012715997174	0
vector 2 World.node[3].appl.middleware.ExampleService proof_size ETV
vector 3 World.node[3].appl.middleware.ExampleService proof_requested ETV
3	16096	37.041930083903	2
2	16096	37.041930083903	2
vector 4 World.node[1].appl.middleware.ExampleService proof_size ETV
vector 5 World.node[1].appl.middleware.ExampleService proof_requested ETV
vector 6 World.node[8].appl.middleware.ExampleService proof_size ETV
vector 7 World.node[8].appl.middleware.ExampleService proof_requested ETV
vector 8 World.node[7].appl.middleware.ExampleService proof_size ETV
vector 9 World.node[7].appl.middleware.ExampleService proof_requested ETV
vector 10 World.node[0].appl.middleware.ExampleService proof_size ETV
vector 11 World.node[0].appl.middleware.ExampleService proof_requested ETV
vector 12 World.node[12].appl.middleware.ExampleService proof_size ETV
vector 13 World.node[12].appl.middleware.ExampleService proof_requested ETV
vector 14 World.node[13].appl.middleware.ExampleService proof_size ETV
vector 15 World.node[13].appl.middleware.ExampleService proof_requested ETV
vector 16 World.node[16].appl.middleware.ExampleService proof_size ETV
vector 17 World.node[16].appl.middleware.ExampleService proof_requested ETV
vector 18 World.node[6].appl.middleware.ExampleService proof_size ETV
vector 19 World.node[6].appl.middleware.ExampleService proof_requested ETV
vector 20 World.node[19].appl.middleware.ExampleService proof_size ETV
vector 21 World.node[19].appl.middleware.ExampleService proof_requested ETV
vector 22 World.node[11].appl.middleware.ExampleService proof_size ETV
vector 23 World.node[11].appl.middleware.ExampleService proof_requested ETV
vector 24 World.node[5].appl.middleware.ExampleService proof_size ETV
vector 25 World.node[5].appl.middleware.ExampleService proof_requested ETV
vector 26 World.node[4].appl.middleware.ExampleService proof_size ETV
vector 27 World.node[4].appl.middleware.ExampleService proof_requested ETV
11	53629	59.054966247594	2
10	53629	59.054966247594	1
vector 28 World.node[20].appl.middleware.ExampleService proof_size ETV
vector 29 World.node[20].appl.middleware.ExampleService proof_requested ETV
vector 30 World.node[24].appl.middleware.ExampleService proof_size ETV
vector 31 World.node[24].appl.middleware.ExampleService proof_requested ETV
5	24723	44.081822672207	2
5	209669	104.081822672207	6
4	24723	44.081822672207	1
4	209669	104.081822672207	2
vector 32 World.node[15].appl.middleware.ExampleService proof_size ETV
vector 33 World.node[15].appl.middleware.ExampleService proof_requested ETV
vector 34 World.node[27].appl.middleware.ExampleService proof_size ETV
vector 35 World.node[27].appl.middleware.ExampleService proof_requested ETV
vector 36 World.node[28].appl.middleware.ExampleService proof_size ETV
vector 37 World.node[28].appl.middleware.ExampleService proof_requested ETV
vector 38 World.node[17].appl.middleware.ExampleService proof_size ETV
vector 39 World.node[17].appl.middleware.ExampleService proof_requested ETV
vector 40 World.node[14].appl.middleware.ExampleService proof_size ETV
vector 41 World.node[14].appl.middleware.ExampleService proof_requested ETV
vector 42 World.node[18].appl.middleware.ExampleService proof_size ETV
vector 43 World.node[18].appl.middleware.ExampleService proof_requested ETV
vector 44 World.node[10].appl.middleware.ExampleService proof_size ETV
vector 45 World.node[10].appl.middleware.ExampleService proof_requested ETV
vector 46 World.node[22].appl.middleware.ExampleService proof_size ETV
vector 47 World.node[22].appl.middleware.ExampleService proof_requested ETV
vector 48 World.node[26].appl.middleware.ExampleService proof_size ETV
vector 49 World.node[26].appl.middleware.ExampleService proof_requested ETV
vector 50 World.node[25].appl.middleware.ExampleService proof_size ETV
vector 51 World.node[25].appl.middleware.ExampleService proof_requested ETV
19	89499	74.091671461589	2
19	408591	134.091671461589	5
18	89499	74.091671461589	1
18	408591	134.091671461589	0
vector 52 World.node[32].appl.middleware.ExampleService proof_size ETV
vector 53 World.node[32].appl.middleware.ExampleService proof_requested ETV
21	106257	79.009896849538	4
21	453513	139.009896849538	5
20	106257	79.009896849538	1
20	453513	139.009896849538	0
47	417686	135.070001642954	2
46	417686	135.070001642954	2
vector 54 World.node[23].appl.middleware.ExampleService proof_size ETV
vector 55 World.node[23].appl.middleware.ExampleService proof_requested ETV
15	67044	64.137142479161	2
15	352391	127.06754110211	6
14	67044	64.137142479161	2
14	352391	127.06754110211	2
vector 56 World.node[29].appl.middleware.ExampleService proof_size ETV
vector 57 World.node[29].appl.middleware.ExampleService proof_requested ETV
7	35013	50.148462912875	3
7	260129	113.032505680341	9
6	35013	50.148462912875	3
6	260129	113.032505680341	2
vector 58 World.node[31].appl.middleware.ExampleService proof_size ETV
vector 59 World.node[31].appl.middleware.ExampleService proof_requested ETV
vector 60 World.node[37].appl.middleware.ExampleService proof_size ETV
vector 61 World.node[37].appl.middleware.ExampleService proof_requested ETV
vector 62 World.node[34].appl.middleware.ExampleService proof_size ETV
vector 63 World.node[34].appl.middleware.ExampleService proof_requested ETV
vector 64 World.node[38].appl.middleware.ExampleService proof_size ETV
vector 65 World.node[38].appl.middleware.ExampleService proof_requested ETV
vector 66 World.node[30].appl.middleware.ExampleService proof_size ETV
vector 67 World.node[30].appl.middleware.ExampleService proof_requested ETV
vector 68 World.node[33].appl.middleware.ExampleService proof_size ETV
vector 69 World.node[33].appl.middleware.ExampleService proof_requested ETV
vector 70 World.node[35].appl.middleware.ExampleService proof_size ETV
vector 71 World.node[35].appl.middleware.ExampleService proof_requested ETV
vector 72 World.node[44].appl.middleware.ExampleService proof_size ETV
vector 73 World.node[44].appl.middleware.ExampleService proof_requested ETV
71	791876	175.0582344346	1
70	791876	175.0582344346	1
33	257045	112.07702522995	6
33	766067	172.07702522995	11
32	257045	112.07702522995	5
32	766067	172.07702522995	5
17	89380	74.073156825966	1
17	434404	137.072794114752	10
16	89380	74.073156825966	1
16	434404	137.072794114752	3
41	377316	130.140150327876	4
40	377316	130.140150327876	4
vector 74 World.node[36].appl.middleware.ExampleService proof_size ETV
vector 75 World.node[36].appl.middleware.ExampleService proof_requested ETV
45	406335	134.025280921441	6
45	1003499	194.025280921441	7
44	406335	134.025280921441	1
44	1003499	194.025280921441	2
vector 76 World.node[42].appl.middleware.ExampleService proof_size ETV
vector 77 World.node[42].appl.middleware.ExampleService proof_requested ETV
vector 78 World.node[45].appl.middleware.ExampleService proof_size ETV
vector 79 World.node[45].appl.middleware.ExampleService proof_requested ETV
9	47382	56.088717995536	1
9	292503	119.088352168864	3
9	827345	179.088352168864	12
8	47382	56.088717995536	1
8	292503	119.088352168864	1
8	827345	179.088352168864	3
vector 80 World.node[39].appl.middleware.ExampleService proof_size ETV
vector 81 World.node[39].appl.middleware.ExampleService proof_requested ETV
67	766279	172.087935010158	10
66	766279	172.087935010158	1
vector 82 World.node[47].appl.middleware.ExampleService proof_size ETV
vector 83 World.node[47].appl.middleware.ExampleService proof_requested ETV
vector 84 World.node[41].appl.middleware.ExampleService proof_size ETV
vector 85 World.node[41].appl.middleware.ExampleService proof_requested ETV
vector 86 World.node[46].appl.middleware.ExampleService proof_size ETV
vector 87 World.node[46].appl.middleware.ExampleService proof_requested ETV
35	260575	113.080043262476	10
35	773436	173.080043262476	10
34	260575	113.080043262476	9
34	773436	173.080043262476	5
69	772841	173.053343567299	10
68	772841	173.053343567299	3
vector 88 World.node[53].appl.middleware.ExampleService proof_size ETV
vector 89 World.node[53].appl.middleware.ExampleService proof_requested ETV
vector 90 World.node[43].appl.middleware.ExampleService proof_size ETV
vector 91 World.node[43].appl.middleware.ExampleService proof_requested ETV
vector 92 World.node[51].appl.middleware.ExampleService proof_size ETV
vector 93 World.node[51].appl.middleware.ExampleService proof_requested ETV
59	711867	167.050258508581	9
59	1357963	224.110622154561	1
58	711867	167.050258508581	2
58	1357963	224.110622154561	1
31	232210	108.041004534974	5
31	723543	168.041004534974	6
31	1414639	228.041004534974	2
30	232210	108.041004534974	3
30	723543	168.041004534974	2
30	1414639	228.041004534974	0
13	59053	61.092614870089	4
13	328182	124.033943554549	4
13	887707	184.033943554549	13
13	1603367	241.063861099886	1
12	59053	61.092614870089	4
12	328182	124.033943554549	2
12	887707	184.033943554549	4
12	1603367	241.063861099886	1
vector 94 World.node[57].appl.middleware.ExampleService proof_size ETV
vector 95 World.node[57].appl.middleware.ExampleService proof_requested ETV
89	1459496	231.003744740156	4
88	1459496	231.003744740156	2
vector 96 World.node[54].appl.middleware.ExampleService proof_size ETV
vector 97 World.node[54].appl.middleware.ExampleService proof_requested ETV
vector 98 World.node[48].appl.middleware.ExampleService proof_size ETV
vector 99 World.node[48].appl.middleware.ExampleService proof_requested ETV
vector 100 World.node[50].appl.middleware.ExampleService proof_size ETV
vector 101 World.node[50].appl.middleware.ExampleService proof_requested ETV
49	460541	140.004050229723	5
49	1070939	200.004050229723	4
48	460541	140.004050229723	0
48	1070939	200.004050229723	3
65	765037	172.032369075064	3
65	1475963	232.032369075064	10
64	765037	172.032369075064	2
64	1475963	232.032369075064	4
vector 102 World.node[62].appl.middleware.ExampleService proof_size ETV
vector 103 World.node[62].appl.middleware.ExampleService proof_requested ETV
vector 104 World.node[49].appl.middleware.ExampleService proof_size ETV
vector 105 World.node[49].appl.middleware.ExampleService proof_requested ETV
vector 106 World.node[55].appl.middleware.ExampleService proof_size ETV
vector 107 World.node[55].appl.middleware.ExampleService proof_requested ETV
vector 108 World.node[52].appl.middleware.ExampleService proof_size ETV
vector 109 World.node[52].appl.middleware.ExampleService proof_requested ETV
vector 110 World.node[61].appl.middleware.ExampleService proof_size ETV
vector 111 World.node[61].appl.middleware.ExampleService proof_requested ETV
97	1641471	244.033244148362	14
96	1641471	244.033244148362	2
vector 112 World.node[59].appl.middleware.ExampleService proof_size ETV
vector 113 World.node[59].appl.middleware.ExampleService proof_requested ETV
29	227130	107.101122421657	1
29	745750	170.08096138516	9
29	1446429	230.08096138516	14
28	227130	107.101122421657	1
28	745750	170.08096138516	3
28	1446429	230.08096138516	7
27	190229	100.07974049435	4
27	648760	160.07974049435	8
27	1307156	220.07974049435	10
26	190229	100.07974049435	0
26	648760	160.07974049435	0
26	1307156	220.07974049435	1
75	994849	193.01468996855	13
75	1766415	253.01468996855	9
74	994849	193.01468996855	5
74	1766415	253.01468996855	1
51	481761	142.033034499502	6
51	1097438	202.033034499502	10
51	1892329	262.033034499502	11
50	481761	142.033034499502	3
50	1097438	202.033034499502	3
50	1892329	262.033034499502	0
vector 114 World.node[56].appl.middleware.ExampleService proof_size ETV
vector 115 World.node[56].appl.middleware.ExampleService proof_requested ETV
23	122917	84.022830495518	3
23	500798	144.022830495518	5
23	1119503	204.022830495518	3
23	1919417	264.022830495518	11
22	122917	84.022830495518	2
22	500798	144.022830495518	2
22	1119503	204.022830495518	0
22	1919417	264.022830495518	4
43	392189	132.066323278984	4
43	950239	189.092485632388	1
43	1754580	252.066323278984	5
42	392189	132.066323278984	1
42	950239	189.092485632388	1
42	1754580	252.066323278984	1
vector 116 World.node[60].appl.middleware.ExampleService proof_size ETV
vector 117 World.node[60].appl.middleware.ExampleService proof_requested ETV
37	352606	127.078410594445	5
37	929186	187.078410594445	15
37	1647127	244.26107382585	9
36	352606	127.078410594445	1
36	929186	187.078410594445	6
36	1647127	244.26107382585	9
115	2123100	279.022456026858	1
114	2123100	279.022456026858	1
25	138390	88.009037037799	5
25	541767	148.009037037799	14
25	1134126	205.126435599408	3
25	1965391	268.009037037799	7
24	138390	88.009037037799	3
24	541767	148.009037037799	5
24	1134126	205.126435599408	3
24	1965391	268.009037037799	0
vector 118 World.node[65].appl.middleware.ExampleService proof_size ETV
vector 119 World.node[65].appl.middleware.ExampleService proof_requested ETV
vector 120 World.node[58].appl.middleware.ExampleService proof_size ETV
vector 121 World.node[58].appl.middleware.ExampleService proof_requested ETV
vector 122 World.node[72].appl.middleware.ExampleService proof_size ETV
vector 123 World.node[72].appl.middleware.ExampleService proof_requested ETV
vector 124 World.node[66].appl.middleware.ExampleService proof_size ETV
vector 125 World.node[66].appl.middleware.ExampleService proof_requested ETV
vector 126 World.node[67].appl.middleware.ExampleService proof_size ETV
vector 127 World.node[67].appl.middleware.ExampleService proof_requested ETV
vector 128 World.node[64].appl.middleware.ExampleService proof_size ETV
vector 129 World.node[64].appl.middleware.ExampleService proof_requested ETV
vector 130 World.node[69].appl.middleware.ExampleService proof_size ETV
vector 131 World.node[69].appl.middleware.ExampleService proof_requested ETV
81	1133832	205.092577066645	8
81	1934313	265.092577066645	11
80	1133832	205.092577066645	0
80	1934313	265.092577066645	2
127	2473136	306.055586099322	3
126	2473136	306.055586099322	2
vector 132 World.node[71].appl.middleware.ExampleService proof_size ETV
vector 133 World.node[71].appl.middleware.ExampleService proof_requested ETV
vector 134 World.node[70].appl.middleware.ExampleService proof_size ETV
vector 135 World.node[70].appl.middleware.ExampleService proof_requested ETV
vector 136 World.node[78].appl.middleware.ExampleService proof_size ETV
vector 137 World.node[78].appl.middleware.ExampleService proof_requested ETV
vector 138 World.node[75].appl.middleware.ExampleService proof_size ETV
vector 139 World.node[75].appl.middleware.ExampleService proof_requested ETV
95	1614028	242.011868476728	7
95	2417313	302.011868476728	16
94	1614028	242.011868476728	4
94	2417313	302.011868476728	3
vector 140 World.node[81].appl.middleware.ExampleService proof_size ETV
vector 141 World.node[81].appl.middleware.ExampleService proof_requested ETV
vector 142 World.node[73].appl.middleware.ExampleService proof_size ETV
vector 143 World.node[73].appl.middleware.ExampleService proof_requested ETV
53	511916	145.031736165937	4
53	1131925	205.031736165937	12
53	1932040	265.031736165937	12
53	2753351	325.031736165937	8
52	511916	145.031736165937	2
52	1131925	205.031736165937	3
52	1932040	265.031736165937	7
52	2753351	325.031736165937	1
vector 144 World.node[77].appl.middleware.ExampleService proof_size ETV
vector 145 World.node[77].appl.middleware.ExampleService proof_requested ETV
55	569234	151.070931461616	7
55	1197517	211.070931461616	7
55	2003352	271.070931461616	15
55	2802645	328.074842612415	1
54	569234	151.070931461616	3
54	1197517	211.070931461616	3
54	2003352	271.070931461616	1
54	2802645	328.074842612415	1
vector 146 World.node[74].appl.middleware.ExampleService proof_size ETV
vector 147 World.node[74].appl.middleware.ExampleService proof_requested ETV
109	1931905	265.016116711847	13
109	2752698	325.016116711847	10
108	1931905	265.016116711847	2
108	2752698	325.016116711847	0
vector 148 World.node[82].appl.middleware.ExampleService proof_size ETV
vector 149 World.node[82].appl.middleware.ExampleService proof_requested ETV
61	733301	169.011678201292	1
61	1474490	232.011312349071	7
61	2288701	292.011312349071	6
60	733301	169.011678201292	1
60	1474490	232.011312349071	1
60	2288701	292.011312349071	1
91	1489145	233.058888817276	8
91	2301654	293.058888817276	7
90	1489145	233.058888817276	5
90	2301654	293.058888817276	3
vector 150 World.node[76].appl.middleware.ExampleService proof_size ETV
vector 151 World.node[76].appl.middleware.ExampleService proof_requested ETV
121	2393585	300.014732892555	7
120	2393585	300.014732892555	3
39	353251	127.092084705946	8
39	929832	187.092084705946	25
39	1687232	247.092084705946	9
39	2450021	304.119758698044	4
38	353251	127.092084705946	5
38	929832	187.092084705946	2
38	1687232	247.092084705946	5
38	2450021	304.119758698044	4
113	2016419	272.048030217108	10
113	2863735	332.048030217108	10
112	2016419	272.048030217108	2
112	2863735	332.048030217108	4
83	1307655	220.096032572887	6
83	2140560	280.096032572887	14
83	3010624	340.096032572887	9
82	1307655	220.096032572887	3
82	2140560	280.096032572887	5
82	3010624	340.096032572887	4
vector 152 World.node[87].appl.middleware.ExampleService proof_size ETV
vector 153 World.node[87].appl.middleware.ExampleService proof_requested ETV
105	1833549	258.019888399821	10
105	2643556	318.019888399821	8
104	1833549	258.019888399821	4
104	2643556	318.019888399821	3
107	1834564	258.059649547958	12
107	2644895	318.059649547958	11
106	1834564	258.059649547958	2
106	2644895	318.059649547958	4
vector 154 World.node[91].appl.middleware.ExampleService proof_size ETV
vector 155 World.node[91].appl.middleware.ExampleService proof_requested ETV
vector 156 World.node[80].appl.middleware.ExampleService proof_size ETV
vector 157 World.node[80].appl.middleware.ExampleService proof_requested ETV
vector 158 World.node[83].appl.middleware.ExampleService proof_size ETV
vector 159 World.node[83].appl.middleware.ExampleService proof_requested ETV
85	1343103	223.016886246996	7
85	2177168	283.016886246996	11
85	3061747	343.016886246996	8
84	1343103	223.016886246996	3
84	2177168	283.016886246996	4
84	3061747	343.016886246996	2
vector 160 World.node[84].appl.middleware.ExampleService proof_size ETV
vector 161 World.node[84].appl.middleware.ExampleService proof_requested ETV
63	755022	171.028453618404	6
63	1461053	231.028453618404	9
63	2275555	291.028453618404	6
63	3204687	351.028453618404	17
62	755022	171.028453618404	1
62	1461053	231.028453618404	3
62	2275555	291.028453618404	5
62	3204687	351.028453618404	4
117	2198223	285.010131658707	12
117	3095104	345.010131658707	7
116	2198223	285.010131658707	6
116	3095104	345.010131658707	1
77	1049642	198.055289640999	11
77	1834561	258.055289640999	16
77	2644677	318.055289640999	5
76	1049642	198.055289640999	6
76	1834561	258.055289640999	4
76	2644677	318.055289640999	2
vector 162 World.node[98].appl.middleware.ExampleService proof_size ETV
vector 163 World.node[98].appl.middleware.ExampleService proof_requested ETV
vector 164 World.node[92].appl.middleware.ExampleService proof_size ETV
vector 165 World.node[92].appl.middleware.ExampleService proof_requested ETV
vector 166 World.node[90].appl.middleware.ExampleService proof_size ETV
vector 167 World.node[90].appl.middleware.ExampleService proof_requested ETV
vector 168 World.node[86].appl.middleware.ExampleService proof_size ETV
vector 169 World.node[86].appl.middleware.ExampleService proof_requested ETV
vector 170 World.node[88].appl.middleware.ExampleService proof_size ETV
vector 171 World.node[88].appl.middleware.ExampleService proof_requested ETV
vector 172 World.node[97].appl.middleware.ExampleService proof_size ETV
vector 173 World.node[97].appl.middleware.ExampleService proof_requested ETV
vector 174 World.node[100].appl.middleware.ExampleService proof_size ETV
vector 175 World.node[100].appl.middleware.ExampleService proof_requested ETV
123	2397151	300.085973097733	2
123	3343514	360.085973097733	20
122	2397151	300.085973097733	1
122	3343514	360.085973097733	6
vector 176 World.node[101].appl.middleware.ExampleService proof_size ETV
vector 177 World.node[101].appl.middleware.ExampleService proof_requested ETV
57	682592	164.043147651223	9
57	1356549	224.043147651223	6
57	2188129	284.043147651223	5
57	3079671	344.043147651223	8
56	682592	164.043147651223	3
56	1356549	224.043147651223	2
56	2188129	284.043147651223	4
56	3079671	344.043147651223	4
vector 178 World.node[96].appl.middleware.ExampleService proof_size ETV
vector 179 World.node[96].appl.middleware.ExampleService proof_requested ETV
vector 180 World.node[89].appl.middleware.ExampleService proof_size ETV
vector 181 World.node[89].appl.middleware.ExampleService proof_requested ETV
87	1386095	226.081014893996	10
87	2212660	286.081014893996	5
87	3115544	346.081014893996	15
87	4197867	406.081014893996	5
86	1386095	226.081014893996	8
86	2212660	286.081014893996	0
86	3115544	346.081014893996	6
86	4197867	406.081014893996	1
vector 182 World.node[102].appl.middleware.ExampleService proof_size ETV
vector 183 World.node[102].appl.middleware.ExampleService proof_requested ETV
93	1489633	233.073258697591	10
93	2302214	293.073258697591	11
93	3237190	353.073258697591	16
92	1489633	233.073258697591	7
92	2302214	293.073258697591	3
92	3237190	353.073258697591	7
vector 184 World.node[104].appl.middleware.ExampleService proof_size ETV
vector 185 World.node[104].appl.middleware.ExampleService proof_requested ETV
vector 186 World.node[94].appl.middleware.ExampleService proof_size ETV
vector 187 World.node[94].appl.middleware.ExampleService proof_requested ETV
141	2917620	335.084115077672	10
141	3992066	395.084115077672	4
140	2917620	335.084115077672	1
140	3992066	395.084115077672	0
vector 188 World.node[85].appl.middleware.ExampleService proof_size ETV
vector 189 World.node[85].appl.middleware.ExampleService proof_requested ETV
137	2769267	326.096803597297	1
137	3874634	389.096432313928	13
136	2769267	326.096803597297	1
136	3874634	389.096432313928	6
vector 190 World.node[93].appl.middleware.ExampleService proof_size ETV
vector 191 World.node[93].appl.middleware.ExampleService proof_requested ETV
vector 192 World.node[99].appl.middleware.ExampleService proof_size ETV
vector 193 World.node[99].appl.middleware.ExampleService proof_requested ETV
vector 194 World.node[95].appl.middleware.ExampleService proof_size ETV
vector 195 World.node[95].appl.middleware.ExampleService proof_requested ETV
73	871079	183.01449586763	6
73	1626534	243.01449586763	8
73	2430164	303.01449586763	11
73	3386220	363.01449586763	12
73	4540464	423.01449586763	13
72	871079	183.01449586763	0
72	1626534	243.01449586763	3
72	2430164	303.01449586763	4
72	3386220	363.01449586763	2
72	4540464	423.01449586763	2
119	2372608	298.076631471515	16
119	3314399	358.076631471515	9
119	4445127	418.076631471515	12
118	2372608	298.076631471515	9
118	3314399	358.076631471515	3
118	4445127	418.076631471515	8
vector 196 World.node[111].appl.middleware.ExampleService proof_size ETV
vector 197 World.node[111].appl.middleware.ExampleService proof_requested ETV
vector 198 World.node[114].appl.middleware.ExampleService proof_size ETV
vector 199 World.node[114].appl.middleware.ExampleService proof_requested ETV
vector 200 World.node[108].appl.middleware.ExampleService proof_size ETV
vector 201 World.node[108].appl.middleware.ExampleService proof_requested ETV
vector 202 World.node[103].appl.middleware.ExampleService proof_size ETV
vector 203 World.node[103].appl.middleware.ExampleService proof_requested ETV
125	2432171	303.069861423271	5
125	3389674	363.069861423271	16
125	4543012	423.069861423271	13
124	2432171	303.069861423271	1
124	3389674	363.069861423271	5
124	4543012	423.069861423271	3
111	1957119	267.141071864769	2
111	2835575	330.097742336313	7
111	3895439	390.097742336313	5
110	1957119	267.141071864769	2
110	2835575	330.097742336313	2
110	3895439	390.097742336313	2
147	3147509	348.0270637376	7
147	4232841	408.0270637376	20
146	3147509	348.0270637376	1
146	4232841	408.0270637376	9
185	4338297	413.048125435947	9
184	4338297	413.048125435947	5
vector 204 World.node[105].appl.middleware.ExampleService proof_size ETV
vector 205 World.node[105].appl.middleware.ExampleService proof_requested ETV
vector 206 World.node[113].appl.middleware.ExampleService proof_size ETV
vector 207 World.node[113].appl.middleware.ExampleService proof_requested ETV
151	3251935	354.060264346632	11
151	4360822	414.060264346632	11
150	3251935	354.060264346632	2
150	4360822	414.060264346632	5
139	2816422	329.052255795849	6
139	3871627	389.052255795849	5
139	5128162	449.052255795849	11
138	2816422	329.052255795849	1
138	3871627	389.052255795849	2
138	5128162	449.052255795849	4
vector 208 World.node[119].appl.middleware.ExampleService proof_size ETV
vector 209 World.node[119].appl.middleware.ExampleService proof_requested ETV
vector 210 World.node[116].appl.middleware.ExampleService proof_size ETV
vector 211 World.node[116].appl.middleware.ExampleService proof_requested ETV
129	2516658	309.075027621374	12
129	3506789	369.075027621374	15
129	4675868	429.075027621374	11
128	2516658	309.075027621374	7
128	3506789	369.075027621374	8
128	4675868	429.075027621374	5
vector 212 World.node[106].appl.middleware.ExampleService proof_size ETV
vector 213 World.node[106].appl.middleware.ExampleService proof_requested ETV
133	2661437	319.067359653581	15
133	3686830	379.067359653581	7
133	4899363	439.067359653581	17
132	2661437	319.067359653581	5
132	3686830	379.067359653581	1
132	4899363	439.067359653581	2
vector 214 World.node[118].appl.middleware.ExampleService proof_size ETV
vector 215 World.node[118].appl.middleware.ExampleService proof_requested ETV
189	4377652	415.013374600746	10
188	4377652	415.013374600746	5
vector 216 World.node[117].appl.middleware.ExampleService proof_size ETV
vector 217 World.node[117].appl.middleware.ExampleService proof_requested ETV
131	2529263	310.034518129658	11
131	3523853	370.034518129658	9
131	4695796	430.034518129658	10
130	2529263	310.034518129658	5
130	3523853	370.034518129658	4
130	4695796	430.034518129658	6
99	1670657	246.02307391034	14
99	2472189	306.02307391034	10
99	3443732	366.02307391034	11
99	4546238	423.136713818673	3
98	1670657	246.02307391034	7
98	2472189	306.02307391034	6
98	3443732	366.02307391034	8
98	4546238	423.136713818673	3
vector 218 World.node[115].appl.middleware.ExampleService proof_size ETV
vector 219 World.node[115].appl.middleware.ExampleService proof_requested ETV
159	3595855	374.062624495733	18
159	4788199	434.062624495733	14
158	3595855	374.062624495733	8
158	4788199	434.062624495733	1
vector 220 World.node[122].appl.middleware.ExampleService proof_size ETV
vector 221 World.node[122].appl.middleware.ExampleService proof_requested ETV
187	4339532	413.075072873454	13
187	5714997	473.075072873454	11
186	4339532	413.075072873454	6
186	5714997	473.075072873454	4
vector 222 World.node[107].appl.middleware.ExampleService proof_size ETV
vector 223 World.node[107].appl.middleware.ExampleService proof_requested ETV
vector 224 World.node[110].appl.middleware.ExampleService proof_size ETV
vector 225 World.node[110].appl.middleware.ExampleService proof_requested ETV
203	4988273	443.039014844457	13
202	4988273	443.039014844457	5
205	5293696	455.070112010022	16
204	5293696	455.070112010022	7
197	4850335	437.010402652738	12
196	4850335	437.010402652738	3
vector 226 World.node[112].appl.middleware.ExampleService proof_size ETV
vector 227 World.node[112].appl.middleware.ExampleService proof_requested ETV
101	1714085	249.087216864526	6
101	2517059	309.087216864526	10
101	3507897	369.087216864526	10
101	4676685	429.087216864526	12
101	5964679	486.133167972279	1
100	1714085	249.087216864526	1
100	2517059	309.087216864526	3
100	3507897	369.087216864526	4
100	4676685	429.087216864526	2
100	5964679	486.133167972279	1
201	4923103	440.076603160705	7
200	4923103	440.076603160705	3
vector 228 World.node[109].appl.middleware.ExampleService proof_size ETV
vector 229 World.node[109].appl.middleware.ExampleService proof_requested ETV
153	3339981	360.032739438955	16
153	4481000	420.032739438955	20
153	5848827	480.032739438955	2
152	3339981	360.032739438955	6
152	4481000	420.032739438955	8
152	5848827	480.032739438955	1
vector 230 World.node[120].appl.middleware.ExampleService proof_size ETV
vector 231 World.node[120].appl.middleware.ExampleService proof_requested ETV
171	3948888	393.020716883545	7
171	5230013	453.020716883545	17
170	3948888	393.020716883545	2
170	5230013	453.020716883545	4
177	4012795	396.056487382413	4
177	5322425	456.056487382413	17
176	4012795	396.056487382413	1
176	5322425	456.056487382413	13
vector 232 World.node[125].appl.middleware.ExampleService proof_size ETV
vector 233 World.node[125].appl.middleware.ExampleService proof_requested ETV
143	2952023	337.021772270743	10
143	4030196	397.021772270743	11
143	5345040	457.021772270743	13
142	2952023	337.021772270743	3
142	4030196	397.021772270743	5
142	5345040	457.021772270743	6
227	6081477	493.040332130599	8
226	6081477	493.040332130599	1
vector 234 World.node[123].appl.middleware.ExampleService proof_size ETV
vector 235 World.node[123].appl.middleware.ExampleService proof_requested ETV
vector 236 World.node[126].appl.middleware.ExampleService proof_size ETV
vector 237 World.node[126].appl.middleware.ExampleService proof_requested ETV
vector 238 World.node[121].appl.middleware.ExampleService proof_size ETV
vector 239 World.node[121].appl.middleware.ExampleService proof_requested ETV
149	3204344	351.023551365826	6
149	4295139	411.023551365826	8
149	5672901	471.023551365826	9
148	3204344	351.023551365826	4
148	4295139	411.023551365826	4
148	5672901	471.023551365826	1
223	5831236	479.09554506659	3
222	5831236	479.09554506659	2
103	1779106	254.085969720036	12
103	2583093	314.085969720036	14
103	3596906	374.085969720036	16
103	4790022	434.085969720036	2
103	6097812	494.085969720036	11
102	1779106	254.085969720036	4
102	2583093	314.085969720036	4
102	3596906	374.085969720036	4
102	4790022	434.085969720036	1
102	6097812	494.085969720036	4
145	3062665	343.037915046164	9
145	4140823	403.037915046164	11
145	5498424	463.037915046164	7
144	3062665	343.037915046164	4
144	4140823	403.037915046164	2
144	5498424	463.037915046164	3
vector 240 World.node[129].appl.middleware.ExampleService proof_size ETV
vector 241 World.node[129].appl.middleware.ExampleService proof_requested ETV
vector 242 World.node[124].appl.middleware.ExampleService proof_size ETV
vector 243 World.node[124].appl.middleware.ExampleService proof_requested ETV
215	5564514	466.07348015999	2
215	6662059	526.064170401467	1
214	5564514	466.07348015999	2
214	6662059	526.064170401467	1
vector 244 World.node[127].appl.middleware.ExampleService proof_size ETV
vector 245 World.node[127].appl.middleware.ExampleService proof_requested ETV
239	6487955	516.073058986641	13
238	6487955	516.073058986641	3
79	1096186	202.019268452213	7
79	1891278	262.019268452213	13
79	2705570	322.019268452213	13
79	3742088	382.019268452213	6
79	4967718	442.019268452213	9
79	6222255	502.019268452213	10
78	1096186	202.019268452213	1
78	1891278	262.019268452213	5
78	2705570	322.019268452213	1
78	3742088	382.019268452213	1
78	4967718	442.019268452213	0
78	6222255	502.019268452213	0
vector 246 World.node[130].appl.middleware.ExampleService proof_size ETV
vector 247 World.node[130].appl.middleware.ExampleService proof_requested ETV
213	5516032	464.019835408847	11
213	6627527	524.019835408847	10
212	5516032	464.019835408847	3
212	6627527	524.019835408847	2
243	6744013	531.080879856413	7
242	6744013	531.080879856413	3
169	3927515	392.024323893548	9
169	5194154	452.024323893548	17
169	6357024	509.189387357445	9
168	3927515	392.024323893548	2
168	5194154	452.024323893548	4
168	6357024	509.189387357445	9
181	4178061	405.055807705945	16
181	5477709	462.100126913541	4
181	6645806	525.055807705945	13
180	4178061	405.055807705945	5
180	5477709	462.100126913541	4
180	6645806	525.055807705945	5
vector 248 World.node[128].appl.middleware.ExampleService proof_size ETV
vector 249 World.node[128].appl.middleware.ExampleService proof_requested ETV
183	4273493	410.06927610361	5
183	5649796	470.06927610361	4
183	6726894	530.06927610361	8
182	4273493	410.06927610361	0
182	5649796	470.06927610361	0
182	6726894	530.06927610361	2
vector 250 World.node[135].appl.middleware.ExampleService proof_size ETV
vector 251 World.node[135].appl.middleware.ExampleService proof_requested ETV
155	3539703	371.043699994427	4
155	4716562	431.043699994427	8
155	6047723	491.043699994427	19
154	3539703	371.043699994427	3
154	4716562	431.043699994427	5
154	6047723	491.043699994427	3
vector 252 World.node[137].appl.middleware.ExampleService proof_size ETV
vector 253 World.node[137].appl.middleware.ExampleService proof_requested ETV
vector 254 World.node[133].appl.middleware.ExampleService proof_size ETV
vector 255 World.node[133].appl.middleware.ExampleService proof_requested ETV
221	5737509	474.092707856058	2
221	6828461	537.021553613315	3
220	5737509	474.092707856058	2
220	6828461	537.021553613315	1
209	5473355	462.032593761804	5
209	6596623	522.032593761804	7
208	5473355	462.032593761804	1
208	6596623	522.032593761804	3
vector 256 World.node[134].appl.middleware.ExampleService proof_size ETV
vector 257 World.node[134].appl.middleware.ExampleService proof_requested ETV
157	3541565	371.081834697537	5
157	4718423	431.081834697537	9
157	6049219	491.081834697537	8
157	7053752	551.081834697537	8
156	3541565	371.081834697537	2
156	4718423	431.081834697537	7
156	6049219	491.081834697537	4
156	7053752	551.081834697537	1
175	3991556	395.080314772669	11
175	5294486	455.080314772669	18
175	6467129	515.080314772669	15
174	3991556	395.080314772669	5
174	5294486	455.080314772669	12
174	6467129	515.080314772669	9
vector 258 World.node[131].appl.middleware.ExampleService proof_size ETV
vector 259 World.node[131].appl.middleware.ExampleService proof_requested ETV
vector 260 World.node[132].appl.middleware.ExampleService proof_size ETV
vector 261 World.node[132].appl.middleware.ExampleService proof_requested ETV
245	6770611	533.020380122704	7
244	6770611	533.020380122704	3
vector 262 World.node[140].appl.middleware.ExampleService proof_size ETV
vector 263 World.node[140].appl.middleware.ExampleService proof_requested ETV
237	6405814	512.016001556604	14
237	7402375	572.016001556604	8
236	6405814	512.016001556604	7
236	7402375	572.016001556604	5
vector 264 World.node[144].appl.middleware.ExampleService proof_size ETV
vector 265 World.node[144].appl.middleware.ExampleService proof_requested ETV
vector 266 World.node[141].appl.middleware.ExampleService proof_size ETV
vector 267 World.node[141].appl.middleware.ExampleService proof_requested ETV
217	5604067	468.021067218715	4
217	6692973	528.021067218715	15
216	5604067	468.021067218715	0
216	6692973	528.021067218715	0
vector 268 World.node[143].appl.middleware.ExampleService proof_size ETV
vector 269 World.node[143].appl.middleware.ExampleService proof_requested ETV
vector 270 World.node[136].appl.middleware.ExampleService proof_size ETV
vector 271 World.node[136].appl.middleware.ExampleService proof_requested ETV
251	7042260	550.303012112644	7
250	7042260	550.303012112644	7
vector 272 World.node[146].appl.middleware.ExampleService proof_size ETV
vector 273 World.node[146].appl.middleware.ExampleService proof_requested ETV
225	5958688	486.003933560313	9
225	6968902	546.003933560313	9
224	5958688	486.003933560313	1
224	6968902	546.003933560313	1
161	3685473	379.027073407499	4
161	4897882	439.027073407499	16
161	6130094	496.146085900074	3
161	7180088	559.027073407499	10
160	3685473	379.027073407499	3
160	4897882	439.027073407499	1
160	6130094	496.146085900074	3
160	7180088	559.027073407499	3
vector 274 World.node[138].appl.middleware.ExampleService proof_size ETV
vector 275 World.node[138].appl.middleware.ExampleService proof_requested ETV
193	4626812	427.0323036141	13
193	5978774	487.0323036141	11
193	6986431	547.0323036141	9
192	4626812	427.0323036141	5
192	5978774	487.0323036141	3
192	6986431	547.0323036141	3
167	3911145	391.050404277025	9
167	5175109	451.050404277025	28
167	6391537	511.050404277025	10
167	7389055	571.050404277025	7
166	3911145	391.050404277025	6
166	5175109	451.050404277025	4
166	6391537	511.050404277025	7
166	7389055	571.050404277025	4
vector 276 World.node[139].appl.middleware.ExampleService proof_size ETV
vector 277 World.node[139].appl.middleware.ExampleService proof_requested ETV
231	6241520	503.068338086922	14
231	7247528	563.068338086922	14
230	6241520	503.068338086922	4
230	7247528	563.068338086922	2
191	4563148	424.061299777497	19
191	5926097	484.061299777497	5
191	6932974	544.061299777497	9
191	7954958	604.061299777497	10
190	4563148	424.061299777497	3
190	5926097	484.061299777497	3
190	6932974	544.061299777497	2
190	7954958	604.061299777497	7
vector 278 World.node[148].appl.middleware.ExampleService proof_size ETV
vector 279 World.node[148].appl.middleware.ExampleService proof_requested ETV
179	4103549	401.040017958195	11
179	5446222	461.040017958195	4
179	6579237	521.040017958195	15
179	7546337	581.040017958195	15
178	4103549	401.040017958195	3
178	5446222	461.040017958195	3
178	6579237	521.040017958195	4
178	7546337	581.040017958195	3
173	3967839	394.007457421836	4
173	5261704	454.007457421836	17
173	6445087	514.007457421836	11
173	7434032	574.007457421836	6
172	3967839	394.007457421836	1
172	5261704	454.007457421836	5
172	6445087	514.007457421836	1
172	7434032	574.007457421836	3
195	4631671	427.096619578055	8
195	5981623	487.096619578055	8
195	6989099	547.096619578055	15
195	8018637	607.096619578055	10
194	4631671	427.096619578055	4
194	5981623	487.096619578055	4
194	6989099	547.096619578055	2
194	8018637	607.096619578055	4
163	3851064	388.006433241139	5
163	5101090	448.006433241139	18
163	6329563	508.006433241139	11
163	7331434	568.006433241139	13
162	3851064	388.006433241139	2
162	5101090	448.006433241139	2
162	6329563	508.006433241139	1
162	7331434	568.006433241139	4
vector 280 World.node[142].appl.middleware.ExampleService proof_size ETV
vector 281 World.node[142].appl.middleware.ExampleService proof_requested ETV
vector 282 World.node[153].appl.middleware.ExampleService proof_size ETV
vector 283 World.node[153].appl.middleware.ExampleService proof_requested ETV
vector 284 World.node[147].appl.middleware.ExampleService proof_size ETV
vector 285 World.node[147].appl.middleware.ExampleService proof_requested ETV
vector 286 World.node[149].appl.middleware.ExampleService proof_size ETV
vector 287 World.node[149].appl.middleware.ExampleService proof_requested ETV
vector 288 World.node[145].appl.middleware.ExampleService proof_size ETV
vector 289 World.node[145].appl.middleware.ExampleService proof_requested ETV
211	5496196	463.014537724829	11
211	6613742	523.014537724829	11
211	7579310	583.014537724829	10
210	5496196	463.014537724829	2
210	6613742	523.014537724829	1
210	7579310	583.014537724829	2
247	6855585	539.082127379696	17
247	7859429	599.082127379696	11
246	6855585	539.082127379696	1
246	7859429	599.082127379696	3
241	6595577	522.007680734066	1
241	7606653	585.007316860161	11
240	6595577	522.007680734066	1
240	7606653	585.007316860161	4
165	3892615	390.054492032691	9
165	5151417	450.054492032691	8
165	6372759	510.054492032691	8
165	7370568	570.054492032691	19
165	8334167	630.054492032691	19
164	3892615	390.054492032691	2
164	5151417	450.054492032691	1
164	6372759	510.054492032691	6
164	7370568	570.054492032691	7
164	8334167	630.054492032691	6
vector 290 World.node[156].appl.middleware.ExampleService proof_size ETV
vector 291 World.node[156].appl.middleware.ExampleService proof_requested ETV
vector 292 World.node[161].appl.middleware.ExampleService proof_size ETV
vector 293 World.node[161].appl.middleware.ExampleService proof_requested ETV
255	7084085	553.066283894866	7
255	8116788	613.066283894866	12
254	7084085	553.066283894866	3
254	8116788	613.066283894866	2
vector 294 World.node[155].appl.middleware.ExampleService proof_size ETV
vector 295 World.node[155].appl.middleware.ExampleService proof_requested ETV
135	2720569	323.036933022924	18
135	3759271	383.036933022924	4
135	4988270	443.036933022924	16
135	6240218	503.036933022924	11
135	7202371	560.141943088943	2
135	8248958	623.036933022924	18
134	2720569	323.036933022924	5
134	3759271	383.036933022924	2
134	4988270	443.036933022924	3
134	6240218	503.036933022924	8
134	7202371	560.141943088943	2
134	8248958	623.036933022924	3
vector 296 World.node[152].appl.middleware.ExampleService proof_size ETV
vector 297 World.node[152].appl.middleware.ExampleService proof_requested ETV
vector 298 World.node[162].appl.middleware.ExampleService proof_size ETV
vector 299 World.node[162].appl.middleware.ExampleService proof_requested ETV
vector 300 World.node[160].appl.middleware.ExampleService proof_size ETV
vector 301 World.node[160].appl.middleware.ExampleService proof_requested ETV
vector 302 World.node[157].appl.middleware.ExampleService proof_size ETV
vector 303 World.node[157].appl.middleware.ExampleService proof_requested ETV
vector 304 World.node[159].appl.middleware.ExampleService proof_size ETV
vector 305 World.node[159].appl.middleware.ExampleService proof_requested ETV
vector 306 World.node[163].appl.middleware.ExampleService proof_size ETV
vector 307 World.node[163].appl.middleware.ExampleService proof_requested ETV
279	8054618	609.079339823523	17
278	8054618	609.079339823523	10
207	5368789	458.043077897932	11
207	6520932	518.043077897932	16
207	7497700	578.043077897932	2
207	8456957	638.043077897932	11
206	5368789	458.043077897932	8
206	6520932	518.043077897932	8
206	7497700	578.043077897932	1
206	8456957	638.043077897932	5
267	7482215	577.075852006534	11
267	8444635	637.075852006534	15
266	7482215	577.075852006534	2
266	8444635	637.075852006534	5
vector 308 World.node[165].appl.middleware.ExampleService proof_size ETV
vector 309 World.node[165].appl.middleware.ExampleService proof_requested ETV
vector 310 World.node[158].appl.middleware.ExampleService proof_size ETV
vector 311 World.node[158].appl.middleware.ExampleService proof_requested ETV
vector 312 World.node[166].appl.middleware.ExampleService proof_size ETV
vector 313 World.node[166].appl.middleware.ExampleService proof_requested ETV
vector 314 World.node[168].appl.middleware.ExampleService proof_size ETV
vector 315 World.node[168].appl.middleware.ExampleService proof_requested ETV
vector 316 World.node[169].appl.middleware.ExampleService proof_size ETV
vector 317 World.node[169].appl.middleware.ExampleService proof_requested ETV
vector 318 World.node[171].appl.middleware.ExampleService proof_size ETV
vector 319 World.node[171].appl.middleware.ExampleService proof_requested ETV
293	8414899	635.080101835332	14
292	8414899	635.080101835332	1
249	7006137	548.09460680373	16
249	8035936	608.09460680373	15
249	8895474	668.09460680373	14
248	7006137	548.09460680373	7
248	8035936	608.09460680373	6
248	8895474	668.09460680373	4
277	7952789	604.023665997363	9
277	8833602	664.023665997363	10
276	7952789	604.023665997363	6
276	8833602	664.023665997363	4
vector 320 World.node[167].appl.middleware.ExampleService proof_size ETV
vector 321 World.node[167].appl.middleware.ExampleService proof_requested ETV
vector 322 World.node[173].appl.middleware.ExampleService proof_size ETV
vector 323 World.node[173].appl.middleware.ExampleService proof_requested ETV
vector 324 World.node[164].appl.middleware.ExampleService proof_size ETV
vector 325 World.node[164].appl.middleware.ExampleService proof_requested ETV
vector 326 World.node[175].appl.middleware.ExampleService proof_size ETV
vector 327 World.node[175].appl.middleware.ExampleService proof_requested ETV
235	6393087	511.080055026338	9
235	7390612	571.080055026338	15
235	8349667	631.080055026338	13
234	6393087	511.080055026338	0
234	7390612	571.080055026338	11
234	8349667	631.080055026338	5
199	4904159	439.183268538601	1
199	6222977	502.022901384649	6
199	7231957	562.022901384649	13
199	8237613	622.022901384649	8
199	9124876	682.022901384649	14
198	4904159	439.183268538601	1
198	6222977	502.022901384649	2
198	7231957	562.022901384649	6
198	8237613	622.022901384649	1
198	9124876	682.022901384649	3
253	7053501	551.078211515397	13
253	8088181	611.078211515397	4
253	8944404	671.078211515397	11
252	7053501	551.078211515397	1
252	8088181	611.078211515397	3
252	8944404	671.078211515397	3
vector 328 World.node[174].appl.middleware.ExampleService proof_size ETV
vector 329 World.node[174].appl.middleware.ExampleService proof_requested ETV
297	8544418	644.002015340491	7
296	8544418	644.002015340491	4
233	6293917	506.032072527101	12
233	7296370	566.032072527101	11
233	8282360	626.032072527101	17
233	9204376	686.032072527101	13
232	6293917	506.032072527101	5
232	7296370	566.032072527101	3
232	8282360	626.032072527101	5
232	9204376	686.032072527101	8
285	8141697	615.000451931264	9
285	9006812	675.000451931264	12
284	8141697	615.000451931264	5
284	9006812	675.000451931264	3
291	8412002	635.023880944075	16
291	9377395	695.023880944075	10
290	8412002	635.023880944075	6
290	9377395	695.023880944075	0
305	8619814	649.086750895274	7
304	8619814	649.086750895274	4
vector 330 World.node[180].appl.middleware.ExampleService proof_size ETV
vector 331 World.node[180].appl.middleware.ExampleService proof_requested ETV
vector 332 World.node[170].appl.middleware.ExampleService proof_size ETV
vector 333 World.node[170].appl.middleware.ExampleService proof_requested ETV
283	8117145	613.088353228243	9
283	8979580	673.088353228243	4
282	8117145	613.088353228243	3
282	8979580	673.088353228243	0
257	7164436	558.041038676887	7
257	8183904	618.041038676887	8
257	9054760	678.041038676887	5
256	7164436	558.041038676887	3
256	8183904	618.041038676887	2
256	9054760	678.041038676887	4
229	6126957	496.041985677369	10
229	7131814	556.041985677369	15
229	8157238	616.041985677369	8
229	9023363	676.041985677369	12
228	6126957	496.041985677369	1
228	7131814	556.041985677369	5
228	8157238	616.041985677369	3
228	9023363	676.041985677369	3
271	7622095	586.037945889319	1
271	8618311	649.037584155938	16
271	9621088	709.037584155938	4
270	7622095	586.037945889319	1
270	8618311	649.037584155938	6
270	9621088	709.037584155938	1
vector 334 World.node[176].appl.middleware.ExampleService proof_size ETV
vector 335 World.node[176].appl.middleware.ExampleService proof_requested ETV
vector 336 World.node[181].appl.middleware.ExampleService proof_size ETV
vector 337 World.node[181].appl.middleware.ExampleService proof_requested ETV
281	8116408	613.061518216273	10
281	8978971	673.061518216273	18
280	8116408	613.061518216273	3
280	8978971	673.061518216273	5
vector 338 World.node[179].appl.middleware.ExampleService proof_size ETV
vector 339 World.node[179].appl.middleware.ExampleService proof_requested ETV
vector 340 World.node[172].appl.middleware.ExampleService proof_size ETV
vector 341 World.node[172].appl.middleware.ExampleService proof_requested ETV
315	8848792	665.079672841425	7
315	9861075	725.079672841425	11
314	8848792	665.079672841425	1
314	9861075	725.079672841425	1
vector 342 World.node[185].appl.middleware.ExampleService proof_size ETV
vector 343 World.node[185].appl.middleware.ExampleService proof_requested ETV
275	7878723	600.086909846007	9
275	8776668	660.086909846007	5
275	9768708	720.086909846007	8
274	7878723	600.086909846007	6
274	8776668	660.086909846007	4
274	9768708	720.086909846007	1
vector 344 World.node[190].appl.middleware.ExampleService proof_size ETV
vector 345 World.node[190].appl.middleware.ExampleService proof_requested ETV
vector 346 World.node[177].appl.middleware.ExampleService proof_size ETV
vector 347 World.node[177].appl.middleware.ExampleService proof_requested ETV
263	7418635	573.002688788623	12
263	8377885	633.002688788623	20
263	9343166	693.002688788623	7
262	7418635	573.002688788623	6
262	8377885	633.002688788623	8
262	9343166	693.002688788623	3
vector 348 World.node[191].appl.middleware.ExampleService proof_size ETV
vector 349 World.node[191].appl.middleware.ExampleService proof_requested ETV
vector 350 World.node[182].appl.middleware.ExampleService proof_size ETV
vector 351 World.node[182].appl.middleware.ExampleService proof_requested ETV
vector 352 World.node[183].appl.middleware.ExampleService proof_size ETV
vector 353 World.node[183].appl.middleware.ExampleService proof_requested ETV
273	7671775	589.038165003317	4
273	8618313	649.038165003317	13
273	9621199	709.038165003317	10
272	7671775	589.038165003317	0
272	8618313	649.038165003317	2
272	9621199	709.038165003317	6
vector 354 World.node[187].appl.middleware.ExampleService proof_size ETV
vector 355 World.node[187].appl.middleware.ExampleService proof_requested ETV
vector 356 World.node[192].appl.middleware.ExampleService proof_size ETV
vector 357 World.node[192].appl.middleware.ExampleService proof_requested ETV
vector 358 World.node[178].appl.middleware.ExampleService proof_size ETV
vector 359 World.node[178].appl.middleware.ExampleService proof_requested ETV
vector 360 World.node[186].appl.middleware.ExampleService proof_size ETV
vector 361 World.node[186].appl.middleware.ExampleService proof_requested ETV
vector 362 World.node[188].appl.middleware.ExampleService proof_size ETV
vector 363 World.node[188].appl.middleware.ExampleService proof_requested ETV
219	5714841	473.073644696502	11
219	6772525	533.073644696502	7
219	7743241	593.073644696502	10
219	8678237	653.073644696502	4
219	9675067	713.073644696502	9
218	5714841	473.073644696502	5
218	6772525	533.073644696502	4
218	7743241	593.073644696502	4
218	8678237	653.073644696502	2
218	9675067	713.073644696502	2
317	8882282	667.095768612274	12
317	9903429	727.095768612274	10
316	8882282	667.095768612274	2
316	9903429	727.095768612274	4
303	8578680	646.099783533928	9
303	9577116	706.099783533928	9
303	10614117	766.099783533928	8
302	8578680	646.099783533928	4
302	9577116	706.099783533928	3
302	10614117	766.099783533928	1
vector 364 World.node[184].appl.middleware.ExampleService proof_size ETV
vector 365 World.node[184].appl.middleware.ExampleService proof_requested ETV
vector 366 World.node[189].appl.middleware.ExampleService proof_size ETV
vector 367 World.node[189].appl.middleware.ExampleService proof_requested ETV
261	7388950	571.041486808402	13
261	8347973	631.041486808402	5
261	9306917	691.041486808402	14
261	10351439	751.041486808402	13
260	7388950	571.041486808402	5
260	8347973	631.041486808402	1
260	9306917	691.041486808402	5
260	10351439	751.041486808402	7
325	9225646	687.012469364284	11
325	10273481	747.012469364284	5
324	9225646	687.012469364284	3
324	10273481	747.012469364284	1
vector 368 World.node[199].appl.middleware.ExampleService proof_size ETV
vector 369 World.node[199].appl.middleware.ExampleService proof_requested ETV
269	7592105	584.020566932578	11
269	8545181	644.020566932578	3
269	9540741	704.020566932578	14
269	10577963	764.020566932578	11
268	7592105	584.020566932578	6
268	8545181	644.020566932578	1
268	9540741	704.020566932578	2
268	10577963	764.020566932578	0
323	9127449	682.067933171871	12
323	10180857	742.067933171871	7
322	9127449	682.067933171871	1
322	10180857	742.067933171871	2
vector 370 World.node[195].appl.middleware.ExampleService proof_size ETV
vector 371 World.node[195].appl.middleware.ExampleService proof_requested ETV
vector 372 World.node[193].appl.middleware.ExampleService proof_size ETV
vector 373 World.node[193].appl.middleware.ExampleService proof_requested ETV
345	10048329	735.072469243303	2
344	10048329	735.072469243303	2
347	10127419	739.144459494459	1
346	10127419	739.144459494459	1
311	8777758	660.120126751937	1
311	9820247	723.059765069932	13
311	10872549	780.166275901416	4
310	8777758	660.120126751937	1
310	9820247	723.059765069932	3
310	10872549	780.166275901416	4
vector 374 World.node[194].appl.middleware.ExampleService proof_size ETV
vector 375 World.node[194].appl.middleware.ExampleService proof_requested ETV
vector 376 World.node[200].appl.middleware.ExampleService proof_size ETV
vector 377 World.node[200].appl.middleware.ExampleService proof_requested ETV
vector 378 World.node[203].appl.middleware.ExampleService proof_size ETV
vector 379 World.node[203].appl.middleware.ExampleService proof_requested ETV
265	7433904	574.006167981378	7
265	8394897	634.006167981378	19
265	9361839	694.006167981378	8
265	10406348	754.006167981378	2
264	7433904	574.006167981378	1
264	8394897	634.006167981378	4
264	9361839	694.006167981378	2
264	10406348	754.006167981378	1
vector 380 World.node[201].appl.middleware.ExampleService proof_size ETV
vector 381 World.node[201].appl.middleware.ExampleService proof_requested ETV
299	8545674	644.04044197367	12
299	9541717	704.04044197367	12
299	10578932	764.04044197367	11
298	8545674	644.04044197367	3
298	9541717	704.04044197367	3
298	10578932	764.04044197367	2
vector 382 World.node[202].appl.middleware.ExampleService proof_size ETV
vector 383 World.node[202].appl.middleware.ExampleService proof_requested ETV
375	11172500	798.070370559162	10
374	11172500	798.070370559162	4
vector 384 World.node[197].appl.middleware.ExampleService proof_size ETV
vector 385 World.node[197].appl.middleware.ExampleService proof_requested ETV
vector 386 World.node[198].appl.middleware.ExampleService proof_size ETV
vector 387 World.node[198].appl.middleware.ExampleService proof_requested ETV
319	8895624	668.097565721697	5
319	9919610	728.097565721697	10
319	11023174	788.097565721697	18
318	8895624	668.097565721697	1
318	9919610	728.097565721697	2
318	11023174	788.097565721697	4
321	9126600	682.044467767747	5
321	10178940	742.044467767747	15
321	11235382	802.044467767747	5
320	9126600	682.044467767747	1
320	10178940	742.044467767747	11
320	11235382	802.044467767747	3
vector 388 World.node[209].appl.middleware.ExampleService proof_size ETV
vector 389 World.node[209].appl.middleware.ExampleService proof_requested ETV
259	7368320	570.004055458307	7
259	8332469	630.004055458307	10
259	9284852	690.004055458307	11
259	10327708	750.004055458307	23
259	11373082	810.004055458307	14
258	7368320	570.004055458307	2
258	8332469	630.004055458307	3
258	9284852	690.004055458307	2
258	10327708	750.004055458307	4
258	11373082	810.004055458307	2
vector 390 World.node[211].appl.middleware.ExampleService proof_size ETV
vector 391 World.node[211].appl.middleware.ExampleService proof_requested ETV
vector 392 World.node[196].appl.middleware.ExampleService proof_size ETV
vector 393 World.node[196].appl.middleware.ExampleService proof_requested ETV
377	11250780	803.028298656899	9
376	11250780	803.028298656899	3
327	9267409	689.065705947601	1
327	10313033	749.065705947601	10
327	11359154	809.065705947601	16
326	9267409	689.065705947601	0
326	10313033	749.065705947601	2
326	11359154	809.065705947601	3
vector 394 World.node[208].appl.middleware.ExampleService proof_size ETV
vector 395 World.node[208].appl.middleware.ExampleService proof_requested ETV
vector 396 World.node[210].appl.middleware.ExampleService proof_size ETV
vector 397 World.node[210].appl.middleware.ExampleService proof_requested ETV
329	9362258	694.025427601114	5
329	10406989	754.025427601114	17
329	11461832	814.025427601114	15
328	9362258	694.025427601114	2
328	10406989	754.025427601114	3
328	11461832	814.025427601114	1
333	9559066	705.084349665907	13
333	10595992	765.084349665907	10
333	11714219	825.084349665907	14
332	9559066	705.084349665907	5
332	10595992	765.084349665907	3
332	11714219	825.084349665907	3
vector 398 World.node[205].appl.middleware.ExampleService proof_size ETV
vector 399 World.node[205].appl.middleware.ExampleService proof_requested ETV
vector 400 World.node[207].appl.middleware.ExampleService proof_size ETV
vector 401 World.node[207].appl.middleware.ExampleService proof_requested ETV
vector 402 World.node[206].appl.middleware.ExampleService proof_size ETV
vector 403 World.node[206].appl.middleware.ExampleService proof_requested ETV
385	11440372	813.091079301341	15
384	11440372	813.091079301341	5
vector 404 World.node[215].appl.middleware.ExampleService proof_size ETV
vector 405 World.node[215].appl.middleware.ExampleService proof_requested ETV
vector 406 World.node[216].appl.middleware.ExampleService proof_size ETV
vector 407 World.node[216].appl.middleware.ExampleService proof_requested ETV
339	9860240	725.064047278627	13
339	10964956	785.064047278627	3
338	9860240	725.064047278627	7
338	10964956	785.064047278627	2
387	11460816	814.006336000841	14
386	11460816	814.006336000841	0
vector 408 World.node[212].appl.middleware.ExampleService proof_size ETV
vector 409 World.node[212].appl.middleware.ExampleService proof_requested ETV
vector 410 World.node[204].appl.middleware.ExampleService proof_size ETV
vector 411 World.node[204].appl.middleware.ExampleService proof_requested ETV
vector 412 World.node[218].appl.middleware.ExampleService proof_size ETV
vector 413 World.node[218].appl.middleware.ExampleService proof_requested ETV
337	9730973	717.147746831208	6
337	10866717	780.02831797807	13
337	12002932	840.02831797807	5
336	9730973	717.147746831208	6
336	10866717	780.02831797807	5
336	12002932	840.02831797807	3
367	10750466	774.006742662704	12
367	11886085	834.006742662704	28
366	10750466	774.006742662704	5
366	11886085	834.006742662704	5
341	9880617	726.034310614248	13
341	10985614	786.034310614248	11
341	12124677	846.034310614248	13
340	9880617	726.034310614248	5
340	10985614	786.034310614248	7
340	12124677	846.034310614248	4
351	10235998	745.067257674295	11
351	11290621	805.067257674295	15
350	10235998	745.067257674295	6
350	11290621	805.067257674295	0
411	12334638	857.051250282	13
410	12334638	857.051250282	3
289	8158050	616.064838898135	8
289	9024212	676.064838898135	8
289	10066746	736.064838898135	10
289	11144091	796.064838898135	6
289	12317882	856.064838898135	9
288	8158050	616.064838898135	1
288	9024212	676.064838898135	4
288	10066746	736.064838898135	4
288	11144091	796.064838898135	0
288	12317882	856.064838898135	3
vector 414 World.node[220].appl.middleware.ExampleService proof_size ETV
vector 415 World.node[220].appl.middleware.ExampleService proof_requested ETV
295	8501801	641.053188579273	16
295	9487685	701.053188579273	10
295	10529706	761.053188579273	17
295	11561283	818.177151291173	2
294	8501801	641.053188579273	4
294	9487685	701.053188579273	3
294	10529706	761.053188579273	7
294	11561283	818.177151291173	2
313	8834008	664.036159033119	6
313	9839557	724.036159033119	10
313	10947124	784.036159033119	15
313	12085309	844.036159033119	7
312	8834008	664.036159033119	2
312	9839557	724.036159033119	3
312	10947124	784.036159033119	5
312	12085309	844.036159033119	5
vector 416 World.node[227].appl.middleware.ExampleService proof_size ETV
vector 417 World.node[227].appl.middleware.ExampleService proof_requested ETV
369	10836696	778.097318910947	16
369	11970611	838.097318910947	11
368	10836696	778.097318910947	6
368	11970611	838.097318910947	3
vector 418 World.node[224].appl.middleware.ExampleService proof_size ETV
vector 419 World.node[224].appl.middleware.ExampleService proof_requested ETV
vector 420 World.node[214].appl.middleware.ExampleService proof_size ETV
vector 421 World.node[214].appl.middleware.ExampleService proof_requested ETV
vector 422 World.node[217].appl.middleware.ExampleService proof_size ETV
vector 423 World.node[217].appl.middleware.ExampleService proof_requested ETV
vector 424 World.node[223].appl.middleware.ExampleService proof_size ETV
vector 425 World.node[223].appl.middleware.ExampleService proof_requested ETV
331	9556428	705.012354936171	10
331	10593095	765.012354936171	16
331	11710731	825.012354936171	17
331	12934590	885.012354936171	4
330	9556428	705.012354936171	3
330	10593095	765.012354936171	3
330	11710731	825.012354936171	7
330	12934590	885.012354936171	2
407	12101101	845.043336850917	7
406	12101101	845.043336850917	5
343	9918163	728.061111606075	1
343	11021883	788.061111606075	4
343	12162946	848.061111606075	21
342	9918163	728.061111606075	0
342	11021883	788.061111606075	3
342	12162946	848.061111606075	10
371	10947299	784.036399528338	5
371	12085443	844.036399528338	20
370	10947299	784.036399528338	2
370	12085443	844.036399528338	7
357	10313663	749.084672087571	7
357	11359336	809.084672087571	14
357	12530872	866.14504214735	1
356	10313663	749.084672087571	1
356	11359336	809.084672087571	5
356	12530872	866.14504214735	1
309	8775085	660.031759372237	6
309	9766543	720.031759372237	10
309	10815210	777.08785892946	3
309	12003277	840.031759372237	13
309	13194305	900.031759372237	2
308	8775085	660.031759372237	1
308	9766543	720.031759372237	3
308	10815210	777.08785892946	3
308	12003277	840.031759372237	4
308	13194305	900.031759372237	1
vector 426 World.node[232].appl.middleware.ExampleService proof_size ETV
vector 427 World.node[232].appl.middleware.ExampleService proof_requested ETV
vector 428 World.node[221].appl.middleware.ExampleService proof_size ETV
vector 429 World.node[221].appl.middleware.ExampleService proof_requested ETV
vector 430 World.node[213].appl.middleware.ExampleService proof_size ETV
vector 431 World.node[213].appl.middleware.ExampleService proof_requested ETV
301	8559820	645.052925111027	8
301	9558220	705.052925111027	13
301	10594861	765.052925111027	10
301	11712854	825.052925111027	6
301	12938351	885.052925111027	11
300	8559820	645.052925111027	4
300	9558220	705.052925111027	4
300	10594861	765.052925111027	0
300	11712854	825.052925111027	2
300	12938351	885.052925111027	9
363	10443878	756.092243814492	18
363	11513449	816.092243814492	22
363	12737849	876.092243814492	18
362	10443878	756.092243814492	8
362	11513449	816.092243814492	7
362	12737849	876.092243814492	6
vector 432 World.node[226].appl.middleware.ExampleService proof_size ETV
vector 433 World.node[226].appl.middleware.ExampleService proof_requested ETV
349	10179729	742.065039150161	1
349	11236149	802.065039150161	15
349	12443489	862.065039150161	7
348	10179729	742.065039150161	0
348	11236149	802.065039150161	3
348	12443489	862.065039150161	0
409	12261642	853.08884223206	10
409	13419874	913.08884223206	8
408	12261642	853.08884223206	3
408	13419874	913.08884223206	1
vector 434 World.node[228].appl.middleware.ExampleService proof_size ETV
vector 435 World.node[228].appl.middleware.ExampleService proof_requested ETV
vector 436 World.node[230].appl.middleware.ExampleService proof_size ETV
vector 437 World.node[230].appl.middleware.ExampleService proof_requested ETV
vector 438 World.node[235].appl.middleware.ExampleService proof_size ETV
vector 439 World.node[235].appl.middleware.ExampleService proof_requested ETV
307	8646794	651.005199158448	6
307	9648515	711.005199158448	9
307	10693150	771.005199158448	8
307	11829572	831.005199158448	16
307	13054262	891.005199158448	11
306	8646794	651.005199158448	0
306	9648515	711.005199158448	3
306	10693150	771.005199158448	3
306	11829572	831.005199158448	4
306	13054262	891.005199158448	3
vector 440 World.node[236].appl.middleware.ExampleService proof_size ETV
vector 441 World.node[236].appl.middleware.ExampleService proof_requested ETV
vector 442 World.node[231].appl.middleware.ExampleService proof_size ETV
vector 443 World.node[231].appl.middleware.ExampleService proof_requested ETV
vector 444 World.node[229].appl.middleware.ExampleService proof_size ETV
vector 445 World.node[229].appl.middleware.ExampleService proof_requested ETV
355	10293313	748.027742837672	14
355	11344006	808.027742837672	10
355	12566954	868.027742837672	13
355	13609504	925.142578672591	1
354	10293313	748.027742837672	6
354	11344006	808.027742837672	2
354	12566954	868.027742837672	5
354	13609504	925.142578672591	1
vector 446 World.node[240].appl.middleware.ExampleService proof_size ETV
vector 447 World.node[240].appl.middleware.ExampleService proof_requested ETV
vector 448 World.node[242].appl.middleware.ExampleService proof_size ETV
vector 449 World.node[242].appl.middleware.ExampleService proof_requested ETV
399	11951514	837.09296330503	1
399	13195628	900.092590614548	17
398	11951514	837.09296330503	1
398	13195628	900.092590614548	1
421	12980655	887.087273337203	8
421	13950983	947.087273337203	5
420	12980655	887.087273337203	1
420	13950983	947.087273337203	2
353	10274609	747.036053153966	10
353	11327988	807.036053153966	27
353	12547916	867.036053153966	9
353	13635587	927.036053153966	6
352	10274609	747.036053153966	4
352	11327988	807.036053153966	9
352	12547916	867.036053153966	5
352	13635587	927.036053153966	3
365	10660524	769.020620858786	8
365	11793213	829.020620858786	16
365	13021158	889.020620858786	12
365	13983888	949.020620858786	16
364	10660524	769.020620858786	3
364	11793213	829.020620858786	8
364	13021158	889.020620858786	3
364	13983888	949.020620858786	1
vector 450 World.node[237].appl.middleware.ExampleService proof_size ETV
vector 451 World.node[237].appl.middleware.ExampleService proof_requested ETV
vector 452 World.node[234].appl.middleware.ExampleService proof_size ETV
vector 453 World.node[234].appl.middleware.ExampleService proof_requested ETV
287	8157498	616.043552567321	10
287	9023479	676.043552567321	18
287	10065846	736.043552567321	4
287	11143330	796.043552567321	13
287	12317062	856.043552567321	12
287	13471104	916.043552567321	16
286	8157498	616.043552567321	3
286	9023479	676.043552567321	5
286	10065846	736.043552567321	1
286	11143330	796.043552567321	4
286	12317062	856.043552567321	5
286	13471104	916.043552567321	10
383	11362333	809.1550952575	1
383	12649922	872.058267335268	11
383	13707082	932.058267335268	5
382	11362333	809.1550952575	1
382	12649922	872.058267335268	4
382	13707082	932.058267335268	3
vector 454 World.node[239].appl.middleware.ExampleService proof_size ETV
vector 455 World.node[239].appl.middleware.ExampleService proof_requested ETV
433	13523689	919.052632745844	6
432	13523689	919.052632745844	1
417	12900520	883.07595391327	15
417	13881973	943.07595391327	7
416	12900520	883.07595391327	3
416	13881973	943.07595391327	0
vector 456 World.node[244].appl.middleware.ExampleService proof_size ETV
vector 457 World.node[244].appl.middleware.ExampleService proof_requested ETV
361	10406991	754.027145271562	13
361	11462023	814.027145271562	14
361	12693787	874.027145271562	15
361	13734641	934.027145271562	13
360	10406991	754.027145271562	0
360	11462023	814.027145271562	1
360	12693787	874.027145271562	5
360	13734641	934.027145271562	4
vector 458 World.node[245].appl.middleware.ExampleService proof_size ETV
vector 459 World.node[245].appl.middleware.ExampleService proof_requested ETV
391	11604672	820.157046225923	14
391	12833809	880.057046225923	13
391	13788198	937.155093339996	5
390	11604672	820.157046225923	0
390	12833809	880.057046225923	8
390	13788198	937.155093339996	5
vector 460 World.node[246].appl.middleware.ExampleService proof_size ETV
vector 461 World.node[246].appl.middleware.ExampleService proof_requested ETV
379	11254514	803.155349300607	1
379	12529727	866.094988709968	6
379	13622561	926.094988709968	6
378	11254514	803.155349300607	1
378	12529727	866.094988709968	3
378	13622561	926.094988709968	1
389	11579412	819.033100981289	17
389	12808787	879.033100981289	19
389	13817125	939.033100981289	7
388	11579412	819.033100981289	6
388	12808787	879.033100981289	11
388	13817125	939.033100981289	3
413	12352788	858.000565465866	3
413	13502606	918.000565465866	6
413	14421297	975.106016301625	1
412	12352788	858.000565465866	0
412	13502606	918.000565465866	1
412	14421297	975.106016301625	1
393	11620618	821.064236382046	16
393	12854506	881.064236382046	15
393	13850831	941.064236382046	5
392	11620618	821.064236382046	8
392	12854506	881.064236382046	7
392	13850831	941.064236382046	4
vector 462 World.node[243].appl.middleware.ExampleService proof_size ETV
vector 463 World.node[243].appl.middleware.ExampleService proof_requested ETV
359	10385247	753.029677476035	9
359	11437273	813.029677476035	18
359	12669697	873.029677476035	16
359	13720321	933.029677476035	11
359	14661563	993.029677476035	16
358	10385247	753.029677476035	2
358	11437273	813.029677476035	3
358	12669697	873.029677476035	6
358	13720321	933.029677476035	4
358	14661563	993.029677476035	7
381	11308004	806.066847093359	1
381	12581661	869.012959559541	15
381	13661113	929.012959559541	14
381	14602807	989.012959559541	9
380	11308004	806.066847093359	1
380	12581661	869.012959559541	2
380	13661113	929.012959559541	3
380	14602807	989.012959559541	1
395	11778379	828.099039717671	18
395	13004003	888.099039717671	16
395	13968753	948.099039717671	5
394	11778379	828.099039717671	2
394	13004003	888.099039717671	7
394	13968753	948.099039717671	2
vector 464 World.node[250].appl.middleware.ExampleService proof_size ETV
vector 465 World.node[250].appl.middleware.ExampleService proof_requested ETV
vector 466 World.node[248].appl.middleware.ExampleService proof_size ETV
vector 467 World.node[248].appl.middleware.ExampleService proof_requested ETV
vector 468 World.node[252].appl.middleware.ExampleService proof_size ETV
vector 469 World.node[252].appl.middleware.ExampleService proof_requested ETV
423	12999986	888.025372569985	19
423	13965777	948.025372569985	16
422	12999986	888.025372569985	9
422	13965777	948.025372569985	6
vector 470 World.node[254].appl.middleware.ExampleService proof_size ETV
vector 471 World.node[254].appl.middleware.ExampleService proof_requested ETV
443	13765984	936.007214472769	8
443	14711354	996.007214472769	8
442	13765984	936.007214472769	4
442	14711354	996.007214472769	4
415	12692180	874.00630852147	19
415	13733958	934.00630852147	5
415	14679521	994.00630852147	4
414	12692180	874.00630852147	11
414	13733958	934.00630852147	0
414	14679521	994.00630852147	2
vector 472 World.node[255].appl.middleware.ExampleService proof_size ETV
vector 473 World.node[255].appl.middleware.ExampleService proof_requested ETV
vector 474 World.node[249].appl.middleware.ExampleService proof_size ETV
vector 475 World.node[249].appl.middleware.ExampleService proof_requested ETV
vector 476 World.node[259].appl.middleware.ExampleService proof_size ETV
vector 477 World.node[259].appl.middleware.ExampleService proof_requested ETV
vector 478 World.node[256].appl.middleware.ExampleService proof_size ETV
vector 479 World.node[256].appl.middleware.ExampleService proof_requested ETV
437	13554327	921.094485563319	21
437	14506083	981.094485563319	16
436	13554327	921.094485563319	3
436	14506083	981.094485563319	0
vector 480 World.node[247].appl.middleware.ExampleService proof_size ETV
vector 481 World.node[247].appl.middleware.ExampleService proof_requested ETV
405	12084521	844.028272586362	11
405	13262407	904.028272586362	11
405	14239150	964.028272586362	5
404	12084521	844.028272586362	0
404	13262407	904.028272586362	5
404	14239150	964.028272586362	2
403	11982377	839.02414190534	3
403	13179528	899.02414190534	20
403	14158246	959.02414190534	14
403	15015231	1019.02414190534	6
402	11982377	839.02414190534	2
402	13179528	899.02414190534	3
402	14158246	959.02414190534	7
402	15015231	1019.02414190534	5
441	13620235	926.041106160637	9
441	14566888	986.041106160637	6
440	13620235	926.041106160637	3
440	14566888	986.041106160637	3
431	13418958	913.076213606568	1
431	14434139	976.075845750677	8
430	13418958	913.076213606568	1
430	14434139	976.075845750677	3
vector 482 World.node[263].appl.middleware.ExampleService proof_size ETV
vector 483 World.node[263].appl.middleware.ExampleService proof_requested ETV
vector 484 World.node[251].appl.middleware.ExampleService proof_size ETV
vector 485 World.node[251].appl.middleware.ExampleService proof_requested ETV
373	10947628	784.048752450384	14
373	12085903	844.048752450384	12
373	13263054	904.048752450384	12
373	14239904	964.048752450384	9
373	15074857	1024.048752450384	9
372	10947628	784.048752450384	7
372	12085903	844.048752450384	0
372	13263054	904.048752450384	6
372	14239904	964.048752450384	2
372	15074857	1024.048752450384	7
vector 486 World.node[253].appl.middleware.ExampleService proof_size ETV
vector 487 World.node[253].appl.middleware.ExampleService proof_requested ETV
vector 488 World.node[257].appl.middleware.ExampleService proof_size ETV
vector 489 World.node[257].appl.middleware.ExampleService proof_requested ETV
401	11966900	838.010848097643	20
401	13167870	898.010848097643	11
401	14143081	958.010848097643	6
401	15004816	1018.010848097643	5
400	11966900	838.010848097643	3
400	13167870	898.010848097643	1
400	14143081	958.010848097643	2
400	15004816	1018.010848097643	0
vector 490 World.node[258].appl.middleware.ExampleService proof_size ETV
vector 491 World.node[258].appl.middleware.ExampleService proof_requested ETV
397	11870826	833.096189559391	18
397	13088786	893.096189559391	7
397	14057736	953.096189559391	21
397	14938957	1013.096189559391	7
396	11870826	833.096189559391	6
396	13088786	893.096189559391	4
396	14057736	953.096189559391	2
396	14938957	1013.096189559391	3
vector 492 World.node[267].appl.middleware.ExampleService proof_size ETV
vector 493 World.node[267].appl.middleware.ExampleService proof_requested ETV
467	14821433	1004.094899564842	11
466	14821433	1004.094899564842	3
335	9723856	717.01838287916	9
335	10811626	777.01838287916	8
335	11945977	837.01838287916	11
335	13150553	897.01838287916	15
335	14127730	957.01838287916	11
335	14992009	1017.01838287916	8
334	9723856	717.01838287916	1
334	10811626	777.01838287916	4
334	11945977	837.01838287916	2
334	13150553	897.01838287916	4
334	14127730	957.01838287916	3
334	14992009	1017.01838287916	2
vector 494 World.node[262].appl.middleware.ExampleService proof_size ETV
vector 495 World.node[262].appl.middleware.ExampleService proof_requested ETV
vector 496 World.node[260].appl.middleware.ExampleService proof_size ETV
vector 497 World.node[260].appl.middleware.ExampleService proof_requested ETV
435	13553982	921.081017559371	16
435	14505929	981.081017559371	15
435	15293553	1041.081017559371	11
434	13553982	921.081017559371	6
434	14505929	981.081017559371	2
434	15293553	1041.081017559371	4
469	14830661	1005.000256457529	10
468	14830661	1005.000256457529	6
451	14112051	956.077281956701	18
451	14979132	1016.077281956701	6
450	14112051	956.077281956701	5
450	14979132	1016.077281956701	0
465	14694510	995.003372296318	9
465	15509592	1055.003372296318	9
464	14694510	995.003372296318	3
464	15509592	1055.003372296318	2
449	13866927	942.092907434213	15
449	14796026	1002.092907434213	6
448	13866927	942.092907434213	3
448	14796026	1002.092907434213	2
vector 498 World.node[265].appl.middleware.ExampleService proof_size ETV
vector 499 World.node[265].appl.middleware.ExampleService proof_requested ETV
vector 500 World.node[268].appl.middleware.ExampleService proof_size ETV
vector 501 World.node[268].appl.middleware.ExampleService proof_requested ETV
vector 502 World.node[270].appl.middleware.ExampleService proof_size ETV
vector 503 World.node[270].appl.middleware.ExampleService proof_requested ETV
483	15205376	1035.090385963768	10
482	15205376	1035.090385963768	3
455	14159138	959.045903472579	3
455	15015864	1019.045903472579	12
455	15780767	1076.144753917694	3
454	14159138	959.045903472579	2
454	15015864	1019.045903472579	6
454	15780767	1076.144753917694	3
491	15485557	1053.184751916825	2
490	15485557	1053.184751916825	2
vector 504 World.node[261].appl.middleware.ExampleService proof_size ETV
vector 505 World.node[261].appl.middleware.ExampleService proof_requested ETV
vector 506 World.node[272].appl.middleware.ExampleService proof_size ETV
vector 507 World.node[272].appl.middleware.ExampleService proof_requested ETV
vector 508 World.node[269].appl.middleware.ExampleService proof_size ETV
vector 509 World.node[269].appl.middleware.ExampleService proof_requested ETV
vector 510 World.node[264].appl.middleware.ExampleService proof_size ETV
vector 511 World.node[264].appl.middleware.ExampleService proof_requested ETV
447	13866184	942.065088906463	1
447	14830887	1005.004718494462	9
447	15652844	1065.004718494462	7
446	13866184	942.065088906463	1
446	14830887	1005.004718494462	4
446	15652844	1065.004718494462	5
vector 512 World.node[266].appl.middleware.ExampleService proof_size ETV
vector 513 World.node[266].appl.middleware.ExampleService proof_requested ETV
vector 514 World.node[273].appl.middleware.ExampleService proof_size ETV
vector 515 World.node[273].appl.middleware.ExampleService proof_requested ETV
445	13799251	938.002142304229	13
445	14739113	998.002142304229	19
445	15555396	1058.002142304229	7
444	13799251	938.002142304229	3
444	14739113	998.002142304229	6
444	15555396	1058.002142304229	0
473	14901332	1010.093026647368	6
473	15713842	1070.093026647368	5
472	14901332	1010.093026647368	0
472	15713842	1070.093026647368	2
453	14112642	956.086551910546	16
453	14979783	1016.086551910546	3
453	15779615	1076.086551910546	9
452	14112642	956.086551910546	6
452	14979783	1016.086551910546	0
452	15779615	1076.086551910546	3
475	14938528	1013.089556570165	9
475	15746390	1073.089556570165	12
474	14938528	1013.089556570165	1
474	15746390	1073.089556570165	5
vector 516 World.node[275].appl.middleware.ExampleService proof_size ETV
vector 517 World.node[275].appl.middleware.ExampleService proof_requested ETV
vector 518 World.node[277].appl.middleware.ExampleService proof_size ETV
vector 519 World.node[277].appl.middleware.ExampleService proof_requested ETV
463	14644887	992.045657194429	6
463	15464980	1052.045657194429	9
462	14644887	992.045657194429	2
462	15464980	1052.045657194429	4
vector 520 World.node[271].appl.middleware.ExampleService proof_size ETV
vector 521 World.node[271].appl.middleware.ExampleService proof_requested ETV
vector 522 World.node[278].appl.middleware.ExampleService proof_size ETV
vector 523 World.node[278].appl.middleware.ExampleService proof_requested ETV
439	13565766	922.035727025941	4
439	14518601	982.035727025941	17
439	15309115	1042.035727025941	8
439	16109313	1102.035727025941	10
438	13565766	922.035727025941	2
438	14518601	982.035727025941	1
438	15309115	1042.035727025941	5
438	16109313	1102.035727025941	4
vector 524 World.node[279].appl.middleware.ExampleService proof_size ETV
vector 525 World.node[279].appl.middleware.ExampleService proof_requested ETV
459	14337872	970.079824838038	1
459	15177971	1033.019457005756	9
459	15996178	1093.019457005756	7
458	14337872	970.079824838038	1
458	15177971	1033.019457005756	4
458	15996178	1093.019457005756	3
509	15918141	1087.025686499383	7
508	15918141	1087.025686499383	5
523	16341713	1122.096549815708	11
522	16341713	1122.096549815708	2
vector 526 World.node[286].appl.middleware.ExampleService proof_size ETV
vector 527 World.node[286].appl.middleware.ExampleService proof_requested ETV
vector 528 World.node[288].appl.middleware.ExampleService proof_size ETV
vector 529 World.node[288].appl.middleware.ExampleService proof_requested ETV
vector 530 World.node[276].appl.middleware.ExampleService proof_size ETV
vector 531 World.node[276].appl.middleware.ExampleService proof_requested ETV
[...]
1662	65787935	3485.017936017504	7
vector 1758 World.node[918].appl.middleware.ExampleService proof_size ETV
vector 1759 World.node[918].appl.middleware.ExampleService proof_requested ETV
vector 1760 World.node[920].appl.middleware.ExampleService proof_size ETV
vector 1761 World.node[920].appl.middleware.ExampleService proof_requested ETV
vector 1762 World.node[922].appl.middleware.ExampleService proof_size ETV
vector 1763 World.node[922].appl.middleware.ExampleService proof_requested ETV
vector 1764 World.node[917].appl.middleware.ExampleService proof_size ETV
vector 1765 World.node[917].appl.middleware.ExampleService proof_requested ETV
vector 1766 World.node[919].appl.middleware.ExampleService proof_size ETV
vector 1767 World.node[919].appl.middleware.ExampleService proof_requested ETV
1755	66838240	3531.016165713104	4
1754	66838240	3531.016165713104	3
vector 1768 World.node[927].appl.middleware.ExampleService proof_size ETV
vector 1769 World.node[927].appl.middleware.ExampleService proof_requested ETV
vector 1770 World.node[925].appl.middleware.ExampleService proof_size ETV
vector 1771 World.node[925].appl.middleware.ExampleService proof_requested ETV
vector 1772 World.node[924].appl.middleware.ExampleService proof_size ETV
vector 1773 World.node[924].appl.middleware.ExampleService proof_requested ETV
vector 1774 World.node[931].appl.middleware.ExampleService proof_size ETV
vector 1775 World.node[931].appl.middleware.ExampleService proof_requested ETV
vector 1776 World.node[934].appl.middleware.ExampleService proof_size ETV
vector 1777 World.node[934].appl.middleware.ExampleService proof_requested ETV
1739	65819003	3486.018149088975	14
1739	67126492	3546.018149088975	4
1738	65819003	3486.018149088975	3
1738	67126492	3546.018149088975	3
1661	61791801	3362.063064307463	8
1661	63776807	3422.063064307463	14
1661	65687771	3482.063064307463	15
1661	67047232	3542.063064307463	2
1660	61791801	3362.063064307463	2
1660	63776807	3422.063064307463	3
1660	65687771	3482.063064307463	5
1660	67047232	3542.063064307463	1
vector 1778 World.node[932].appl.middleware.ExampleService proof_size ETV
vector 1779 World.node[932].appl.middleware.ExampleService proof_requested ETV
1689	63483176	3412.091714613978	18
1689	65361036	3472.091714613978	20
1689	66865543	3532.091714613978	13
1688	63483176	3412.091714613978	2
1688	65361036	3472.091714613978	6
1688	66865543	3532.091714613978	3
1699	63894596	3425.01077540738	16
1699	65787194	3485.01077540738	12
1699	67048173	3542.071140756356	1
1698	63894596	3425.01077540738	7
1698	65787194	3485.01077540738	5
1698	67048173	3542.071140756356	1
1713	64593228	3446.074157477636	21
1713	66312628	3506.074157477636	17
1713	67602923	3566.074157477636	18
1712	64593228	3446.074157477636	2
1712	66312628	3506.074157477636	3
1712	67602923	3566.074157477636	5
1717	64794264	3454.000959250331	8
1717	66472441	3514.000959250331	8
1716	64794264	3454.000959250331	1
1716	66472441	3514.000959250331	1
1621	59500191	3283.036356843705	18
1621	61231236	3343.036356843705	18
1621	63193270	3403.036356843705	15
1621	65063141	3463.036356843705	19
1621	66676471	3523.036356843705	10
1620	59500191	3283.036356843705	2
1620	61231236	3343.036356843705	3
1620	63193270	3403.036356843705	6
1620	65063141	3463.036356843705	2
1620	66676471	3523.036356843705	2
1693	63537978	3414.01837294416	14
1693	65423403	3474.01837294416	34
1693	66898374	3534.01837294416	6
1692	63537978	3414.01837294416	1
1692	65423403	3474.01837294416	10
1692	66898374	3534.01837294416	3
1735	65682350	3482.004799781065	10
1735	67044933	3542.004799781065	6
1734	65682350	3482.004799781065	1
1734	67044933	3542.004799781065	0
1707	64044171	3429.050504541653	14
1707	65929339	3489.050504541653	20
1707	67193278	3549.050504541653	5
1706	64044171	3429.050504541653	5
1706	65929339	3489.050504541653	18
1706	67193278	3549.050504541653	1
vector 1780 World.node[938].appl.middleware.ExampleService proof_size ETV
vector 1781 World.node[938].appl.middleware.ExampleService proof_requested ETV
vector 1782 World.node[926].appl.middleware.ExampleService proof_size ETV
vector 1783 World.node[926].appl.middleware.ExampleService proof_requested ETV
vector 1784 World.node[930].appl.middleware.ExampleService proof_size ETV
vector 1785 World.node[930].appl.middleware.ExampleService proof_requested ETV
1565	57385406	3189.038919327757	4
1565	58643083	3249.038919327757	22
1565	60205515	3309.038919327757	14
1565	61985447	3369.038919327757	20
1565	64043532	3429.038919327757	22
1565	65928563	3489.038919327757	33
1565	67192853	3549.038919327757	21
1564	57385406	3189.038919327757	3
1564	58643083	3249.038919327757	5
1564	60205515	3309.038919327757	5
1564	61985447	3369.038919327757	6
1564	64043532	3429.038919327757	5
1564	65928563	3489.038919327757	8
1564	67192853	3549.038919327757	0
1765	67168220	3548.004678037344	8
1764	67168220	3548.004678037344	1
vector 1786 World.node[935].appl.middleware.ExampleService proof_size ETV
vector 1787 World.node[935].appl.middleware.ExampleService proof_requested ETV
vector 1788 World.node[937].appl.middleware.ExampleService proof_size ETV
vector 1789 World.node[937].appl.middleware.ExampleService proof_requested ETV
vector 1790 World.node[928].appl.middleware.ExampleService proof_size ETV
vector 1791 World.node[928].appl.middleware.ExampleService proof_requested ETV
1731	65425050	3474.039563001716	7
1731	66899068	3534.039563001716	7
1730	65425050	3474.039563001716	1
1730	66899068	3534.039563001716	5
vector 1792 World.node[933].appl.middleware.ExampleService proof_size ETV
vector 1793 World.node[933].appl.middleware.ExampleService proof_requested ETV
1577	57659485	3204.040338612115	6
1577	59027645	3264.040338612115	18
1577	60658833	3324.040338612115	19
1577	62500269	3384.040338612115	20
1577	64536155	3444.040338612115	20
1577	66275996	3504.040338612115	14
1577	67480122	3561.078263062814	2
1576	57659485	3204.040338612115	3
1576	59027645	3264.040338612115	3
1576	60658833	3324.040338612115	6
1576	62500269	3384.040338612115	4
1576	64536155	3444.040338612115	5
1576	66275996	3504.040338612115	5
1576	67480122	3561.078263062814	2
vector 1794 World.node[939].appl.middleware.ExampleService proof_size ETV
vector 1795 World.node[939].appl.middleware.ExampleService proof_requested ETV
vector 1796 World.node[936].appl.middleware.ExampleService proof_size ETV
vector 1797 World.node[936].appl.middleware.ExampleService proof_requested ETV
vector 1798 World.node[941].appl.middleware.ExampleService proof_size ETV
vector 1799 World.node[941].appl.middleware.ExampleService proof_requested ETV
1691	63518025	3413.182028823479	1
1691	65486862	3476.049578289711	12
1691	66935209	3536.049578289711	6
1691	68204594	3596.049578289711	12
1690	63518025	3413.182028823479	1
1690	65486862	3476.049578289711	4
1690	66935209	3536.049578289711	3
1690	68204594	3596.049578289711	2
1733	65658828	3481.070960302302	11
1733	67031262	3541.070960302302	4
1733	68300337	3601.070960302302	8
1732	65658828	3481.070960302302	5
1732	67031262	3541.070960302302	3
1732	68300337	3601.070960302302	2
1737	65769012	3484.161511730123	3
1737	67087479	3544.061511730123	10
1737	68367888	3604.061511730123	2
1736	65769012	3484.161511730123	0
1736	67087479	3544.061511730123	4
1736	68367888	3604.061511730123	1
1725	65251984	3469.097244746983	16
1725	66805950	3529.097244746983	6
1725	68070231	3589.097244746983	9
1724	65251984	3469.097244746983	4
1724	66805950	3529.097244746983	3
1724	68070231	3589.097244746983	5
vector 1800 World.node[942].appl.middleware.ExampleService proof_size ETV
vector 1801 World.node[942].appl.middleware.ExampleService proof_requested ETV
1783	67936904	3582.031188042019	16
1782	67936904	3582.031188042019	5
1627	59791105	3294.058038898651	7
1627	61580804	3354.058038898651	10
1627	63540197	3414.058038898651	9
1627	65426787	3474.058038898651	34
1627	66899453	3534.058038898651	7
1627	68169478	3594.058038898651	13
1626	59791105	3294.058038898651	4
1626	61580804	3354.058038898651	9
1626	63540197	3414.058038898651	0
1626	65426787	3474.058038898651	4
1626	66899453	3534.058038898651	4
1626	68169478	3594.058038898651	2
1771	67405546	3558.066740797437	10
1771	68613458	3615.076342496893	1
1770	67405546	3558.066740797437	2
1770	68613458	3615.076342496893	1
1595	58423488	3240.013399918913	3
1595	59955812	3300.013399918913	16
1595	61735684	3360.013399918913	18
1595	63707089	3420.013399918913	21
1595	65620281	3480.013399918913	22
1595	67009864	3540.013399918913	18
1595	68278968	3600.013399918913	11
1594	58423488	3240.013399918913	1
1594	59955812	3300.013399918913	2
1594	61735684	3360.013399918913	2
1594	63707089	3420.013399918913	6
1594	65620281	3480.013399918913	6
1594	67009864	3540.013399918913	3
1594	68278968	3600.013399918913	2
1797	68364124	3604.005229433347	11
1796	68364124	3604.005229433347	1
1727	65313358	3471.021504804189	5
1727	66839405	3531.021504804189	8
1727	68103679	3591.021504804189	12
1726	65313358	3471.021504804189	0
1726	66839405	3531.021504804189	3
1726	68103679	3591.021504804189	2
1743	66088091	3495.016235220316	6
1743	67331665	3555.016235220316	10
1743	68558598	3612.126857951091	1
1742	66088091	3495.016235220316	1
1742	67331665	3555.016235220316	5
1742	68558598	3612.126857951091	1
vector 1802 World.node[940].appl.middleware.ExampleService proof_size ETV
vector 1803 World.node[940].appl.middleware.ExampleService proof_requested ETV
1761	66994287	3539.087811037945	15
1761	68265168	3599.087811037945	24
1760	66994287	3539.087811037945	2
1760	68265168	3599.087811037945	5
vector 1804 World.node[943].appl.middleware.ExampleService proof_size ETV
vector 1805 World.node[943].appl.middleware.ExampleService proof_requested ETV
1757	66921199	3535.091492375894	7
1757	68191243	3595.091492375894	19
1757	69162044	3655.091492375894	6
1756	66921199	3535.091492375894	6
1756	68191243	3595.091492375894	4
1756	69162044	3655.091492375894	2
1793	68190076	3595.070380960777	7
1793	69130434	3652.241012287961	4
1792	68190076	3595.070380960777	3
1792	69130434	3652.241012287961	4
1751	66368899	3509.087439878394	1
1751	67731594	3572.027077706764	10
1751	68888048	3632.027077706764	3
1750	66368899	3509.087439878394	1
1750	67731594	3572.027077706764	2
1750	68888048	3632.027077706764	2
1623	59552352	3285.098736379272	18
1623	61298773	3345.098736379272	18
1623	63267885	3405.098736379272	28
1623	65124882	3465.098736379272	26
1623	66719459	3525.098736379272	5
1623	67994615	3585.098736379272	16
1623	69056478	3645.098736379272	9
1622	59552352	3285.098736379272	3
1622	61298773	3345.098736379272	2
1622	63267885	3405.098736379272	4
1622	65124882	3465.098736379272	6
1622	66719459	3525.098736379272	0
1622	67994615	3585.098736379272	0
1622	69056478	3645.098736379272	1
1723	65066304	3463.068940109503	11
1723	66677779	3523.068940109503	13
1723	67957074	3583.068940109503	11
1723	69029610	3643.068940109503	17
1722	65066304	3463.068940109503	8
1722	66677779	3523.068940109503	1
1722	67957074	3583.068940109503	1
1722	69029610	3643.068940109503	7
1773	67449427	3560.028769174218	9
1773	68705923	3620.028769174218	7
1773	69430710	3680.028769174218	3
1772	67449427	3560.028769174218	3
1772	68705923	3620.028769174218	4
1772	69430710	3680.028769174218	1
1785	67991269	3585.000475143897	6
1785	69054687	3645.000475143897	5
1784	67991269	3585.000475143897	1
1784	69054687	3645.000475143897	2
1695	63565236	3415.051361033833	25
1695	65459497	3475.051361033833	19
1695	66919591	3535.051361033833	13
1695	68189303	3595.051361033833	12
1695	69130214	3652.211600825919	6
1694	63565236	3415.051361033833	5
1694	65459497	3475.051361033833	5
1694	66919591	3535.051361033833	0
1694	68189303	3595.051361033833	3
1694	69130214	3652.211600825919	6
1769	67331507	3555.015611801832	6
1769	68610673	3615.015611801832	9
1769	69359917	3672.118781816692	1
1768	67331507	3555.015611801832	3
1768	68610673	3615.015611801832	4
1768	69359917	3672.118781816692	1
1781	67918639	3581.060905351723	9
1781	69005632	3641.060905351723	9
1781	69552606	3698.121277217703	1
1780	67918639	3581.060905351723	2
1780	69005632	3641.060905351723	1
1780	69552606	3698.121277217703	1
1779	67603296	3566.081964780181	9
1779	68809614	3626.081964780181	8
1779	69476303	3686.081964780181	2
1778	67603296	3566.081964780181	5
1778	68809614	3626.081964780181	2
1778	69476303	3686.081964780181	0
1801	68761276	3623.058735143766	4
1801	69455086	3683.058735143766	5
1800	68761276	3623.058735143766	0
1800	69455086	3683.058735143766	1
1775	67451915	3560.084401646443	18
1775	68708163	3620.084401646443	4
1775	69431778	3680.084401646443	11
1774	67451915	3560.084401646443	0
1774	68708163	3620.084401646443	2
1774	69431778	3680.084401646443	1
1721	65033162	3462.063382498967	29
1721	66655501	3522.063382498967	14
1721	67938794	3582.063382498967	13
1721	69018191	3642.063382498967	17
1721	69575210	3702.063382498967	6
1720	65033162	3462.063382498967	15
1720	66655501	3522.063382498967	2
1720	67938794	3582.063382498967	2
1720	69018191	3642.063382498967	2
1720	69575210	3702.063382498967	2
1729	65393054	3473.075843440648	9
1729	66881889	3533.075843440648	6
1729	68151868	3593.075843440648	10
1729	69138910	3653.075843440648	3
1728	65393054	3473.075843440648	0
1728	66881889	3533.075843440648	3
1728	68151868	3593.075843440648	2
1728	69138910	3653.075843440648	0
1805	69105054	3650.01524674797	10
1805	69616585	3710.01524674797	5
1804	69105054	3650.01524674797	2
1804	69616585	3710.01524674797	3
1787	68025713	3587.01593499484	4
1787	69074103	3647.01593499484	22
1787	69601052	3707.01593499484	9
1786	68025713	3587.01593499484	0
1786	69074103	3647.01593499484	6
1786	69601052	3707.01593499484	1
1759	66974873	3538.013862864091	9
1759	68245146	3598.013862864091	16
1759	69194296	3658.013862864091	7
1759	69635511	3715.01423536007	1
1758	66974873	3538.013862864091	4
1758	68245146	3598.013862864091	1
1758	69194296	3658.013862864091	3
1758	69635511	3715.01423536007	1
1687	63297561	3406.081538341031	27
1687	65153595	3466.081538341031	18
1687	66740397	3526.081538341031	13
1687	68011548	3586.081538341031	15
1687	69065324	3646.081538341031	17
1687	69597431	3706.081538341031	13
1686	63297561	3406.081538341031	8
1686	65153595	3466.081538341031	2
1686	66740397	3526.081538341031	3
1686	68011548	3586.081538341031	2
1686	69065324	3646.081538341031	2
1686	69597431	3706.081538341031	3
1753	66610567	3520.011460869131	3
1753	67899008	3580.011460869131	9
1753	68988262	3640.011460869131	5
1753	69564031	3700.011460869131	8
1752	66610567	3520.011460869131	0
1752	67899008	3580.011460869131	1
1752	68988262	3640.011460869131	1
1752	69564031	3700.011460869131	0
1749	66311501	3506.033314267104	5
1749	67601021	3566.033314267104	14
1749	68808393	3626.033314267104	8
1749	69475933	3686.033314267104	3
1749	69720777	3743.089001614618	3
1748	66311501	3506.033314267104	4
1748	67601021	3566.033314267104	5
1748	68808393	3626.033314267104	3
1748	69475933	3686.033314267104	2
1748	69720777	3743.089001614618	3
1803	69028802	3643.016976020671	17
1803	69579661	3703.016976020671	1
1803	69791295	3763.016976020671	3
1802	69028802	3643.016976020671	5
1802	69579661	3703.016976020671	0
1802	69791295	3763.016976020671	0
1795	68299138	3601.058669710252	3
1795	69196092	3658.075721773055	1
1795	69654501	3721.058669710252	2
1794	68299138	3601.058669710252	1
1794	69196092	3658.075721773055	1
1794	69654501	3721.058669710252	0
1705	64042789	3429.028333629458	20
1705	65927629	3489.028333629458	20
1705	67192660	3549.028333629458	14
1705	68485306	3609.028333629458	22
1705	69325333	3669.028333629458	13
1705	69680921	3729.028333629458	4
1704	64042789	3429.028333629458	3
1704	65927629	3489.028333629458	12
1704	67192660	3549.028333629458	3
1704	68485306	3609.028333629458	7
1704	69325333	3669.028333629458	5
1704	69680921	3729.028333629458	2
1709	64229234	3434.08567101527	14
1709	66068700	3494.08567101527	8
1709	67311573	3554.08567101527	27
1709	68596006	3614.08567101527	19
1709	69378187	3674.08567101527	10
1709	69694543	3734.08567101527	8
1708	64229234	3434.08567101527	6
1708	66068700	3494.08567101527	1
1708	67311573	3554.08567101527	10
1708	68596006	3614.08567101527	6
1708	69378187	3674.08567101527	2
1708	69694543	3734.08567101527	0
1745	66110106	3496.026700135926	18
1745	67356197	3556.026700135926	10
1745	68628408	3616.026700135926	17
1745	69394771	3676.026700135926	10
1745	69699350	3736.026700135926	8
1745	69843647	3796.026700135926	5
1744	66110106	3496.026700135926	0
1744	67356197	3556.026700135926	2
1744	68628408	3616.026700135926	5
1744	69394771	3676.026700135926	0
1744	69699350	3736.026700135926	0
1744	69843647	3796.026700135926	0
1789	68083731	3590.028883720865	12
1789	69105472	3650.028883720865	8
1789	69616814	3710.028883720865	2
1788	68083731	3590.028883720865	3
1788	69105472	3650.028883720865	3
1788	69616814	3710.028883720865	1
1701	63980328	3427.062617592537	23
1701	65872754	3487.062617592537	21
1701	67153019	3547.062617592537	13
1701	68442721	3607.062617592537	31
1701	69303249	3667.062617592537	10
1701	69664588	3724.088996899291	2
1701	69827613	3784.088998567531	1
1700	63980328	3427.062617592537	3
1700	65872754	3487.062617592537	11
1700	67153019	3547.062617592537	0
1700	68442721	3607.062617592537	13
1700	69303249	3667.062617592537	3
1700	69664588	3724.088996899291	2
1700	69827613	3784.088998567531	1
1791	68106382	3591.060344295274	18
1791	69115859	3651.060344295274	15
1791	69621397	3711.060344295274	10
1791	69806351	3771.060344295274	6
1791	69868825	3831.060344295274	2
1790	68106382	3591.060344295274	3
1790	69115859	3651.060344295274	1
1790	69621397	3711.060344295274	2
1790	69806351	3771.060344295274	0
1790	69868825	3831.060344295274	0
1777	67479568	3561.070866546035	4
1777	68729672	3621.070866546035	24
1777	69441830	3681.070866546035	13
1777	69714731	3741.070866546035	8
1777	69848765	3801.070866546035	2
1777	69891102	3858.134834301537	2
1776	67479568	3561.070866546035	2
1776	68729672	3621.070866546035	10
1776	69441830	3681.070866546035	4
1776	69714731	3741.070866546035	0
1776	69848765	3801.070866546035	0
1776	69891102	3858.134834301537	2
1711	64416330	3440.07200898258	19
1711	66194199	3500.07200898258	18
1711	67451584	3560.07200898258	16
1711	68707656	3620.07200898258	24
1711	69431608	3680.07200898258	14
1711	69702574	3737.188999151242	2
1711	69892177	3860.07200898258	4
1710	64416330	3440.07200898258	3
1710	66194199	3500.07200898258	4
1710	67451584	3560.07200898258	2
1710	68707656	3620.07200898258	5
1710	69431608	3680.07200898258	5
1710	69702574	3737.188999151242	2
1710	69892177	3860.07200898258	0
1747	66258517	3503.097973550227	2
1747	67530802	3563.097973550227	19
1747	68764234	3623.097973550227	18
1747	69455492	3683.097973550227	22
1747	69720857	3743.097973550227	11
1747	69847897	3800.158338239043	1
1747	69892271	3860.158343598734	1
1746	66258517	3503.097973550227	0
1746	67530802	3563.097973550227	0
1746	68764234	3623.097973550227	4
1746	69455492	3683.097973550227	5
1746	69720857	3743.097973550227	0
1746	69847897	3800.158338239043	1
1746	69892271	3860.158343598734	1
1767	67264571	3552.026942792558	18
1767	68553752	3612.026942792558	19
1767	69357544	3672.026942792558	10
1767	69688972	3732.026942792558	9
1767	69838474	3792.026942792558	5
1767	69884294	3849.087309298655	1
1766	67264571	3552.026942792558	5
1766	68553752	3612.026942792558	4
1766	69357544	3672.026942792558	3
1766	69688972	3732.026942792558	0
1766	69838474	3792.026942792558	0
1766	69884294	3849.087309298655	1
1763	67089884	3544.075844996818	6
1763	68371489	3604.075844996818	15
1763	69266178	3664.075844996818	12
1763	69664543	3724.075844996818	9
1763	69827523	3784.075844996818	7
1763	69877415	3841.134834979058	3
1762	67089884	3544.075844996818	1
1762	68371489	3604.075844996818	2
1762	69266178	3664.075844996818	5
1762	69664543	3724.075844996818	1
1762	69827523	3784.075844996818	2
1762	69877415	3841.134834979058	3
1799	68511445	3610.074725900451	22
1799	69338408	3670.074725900451	10
1799	69683615	3730.074725900451	9
1799	69836145	3790.074725900451	6
1799	69882749	3847.132118566754	3
1798	68511445	3610.074725900451	7
1798	69338408	3670.074725900451	4
1798	69683615	3730.074725900451	1
1798	69836145	3790.074725900451	3
1798	69882749	3847.132118566754	3

