file 312652 1573990075                                          
version 2
run Obstacles-1-20191117-12:20:37-19092
attr configname Obstacles
attr datetime 20191117-12:20:37
attr experiment Obstacles
attr inifile omnetpp.ini
attr iterationvars $0=40
attr iterationvarsf 40-
attr measurement $0=40
attr network artery.veins.World
attr processid 19092
attr repetition 0
attr replication #0
attr resultdir results
attr runnumber 1
attr seedset 1
param *.traci.launcher.sumocfg "\"Obstacles/run.sumo.cfg\""
param *.withObstacles true
param *.obstacles.obstacles "xmldoc(\"config_obstacles.xml\", \"//AnalogueModel[@type='SimpleObstacleShadowing']/obstacles\")"
param *.node[*].nic.mac1609_4.txPower 20mW
param *.node[*].nic.phy80211p.decider "xmldoc(\"config_obstacles.xml\")"
param *.node[*].nic.phy80211p.analogueModels "xmldoc(\"config_obstacles.xml\")"
param *.node[*].applType "\"artery.veins.ApplicationLayer\""
param *.node[*].appl.middleware.updateInterval 0.1s
param *.node[*].appl.middleware.datetime "\"2013-06-01 12:35:00\""
param *.node[*].appl.middleware.services "xmldoc(\"services.xml\")"
param *.node[*].appl.middleware.ExampleService.DecisionLogic 40
param *.node[*].appl.middleware.ExampleService.NeighboringWindow 60
param *.traci.core.version -1
param *.traci.launcher.typename "\"PosixLauncher\""
param *.playgroundSizeX 4000m
param *.playgroundSizeY 4000m
param *.playgroundSizeZ 50m
param *.connectionManager.maxInterfDist 1500m
param *.connectionManager.sendDirect true
param *.connectionManager.coreDebug false

vector 0 World.node[2].appl.middleware.ExampleService proof_size ETV
vector 1 World.node[2].appl.middleware.ExampleService proof_requested ETV
1	1611 25 4143 4143 20.012715997174 20.012715997174 1 1 1 1 1
0	1636 25 4143 4143 20.012715997174 20.012715997174 1 0 0 0 0
vector 2 World.node[3].appl.middleware.ExampleService proof_size ETV
vector 3 World.node[3].appl.middleware.ExampleService proof_requested ETV
3	1804 26 16096 16096 37.041930083903 37.041930083903 1 2 2 2 4
2	1830 26 16096 16096 37.041930083903 37.041930083903 1 2 2 2 4
vector 4 World.node[1].appl.middleware.ExampleService proof_size ETV
vector 5 World.node[1].appl.middleware.ExampleService proof_requested ETV
vector 6 World.node[8].appl.middleware.ExampleService proof_size ETV
vector 7 World.node[8].appl.middleware.ExampleService proof_requested ETV
vector 8 World.node[7].appl.middleware.ExampleService proof_size ETV
vector 9 World.node[7].appl.middleware.ExampleService proof_requested ETV
vector 10 World.node[0].appl.middleware.ExampleService proof_size ETV
vector 11 World.node[0].appl.middleware.ExampleService proof_requested ETV
vector 12 World.node[12].appl.middleware.ExampleService proof_size ETV
vector 13 World.node[12].appl.middleware.ExampleService proof_requested ETV
vector 14 World.node[13].appl.middleware.ExampleService proof_size ETV
vector 15 World.node[13].appl.middleware.ExampleService proof_requested ETV
vector 16 World.node[16].appl.middleware.ExampleService proof_size ETV
vector 17 World.node[16].appl.middleware.ExampleService proof_requested ETV
vector 18 World.node[6].appl.middleware.ExampleService proof_size ETV
vector 19 World.node[6].appl.middleware.ExampleService proof_requested ETV
vector 20 World.node[19].appl.middleware.ExampleService proof_size ETV
vector 21 World.node[19].appl.middleware.ExampleService proof_requested ETV
vector 22 World.node[11].appl.middleware.ExampleService proof_size ETV
vector 23 World.node[11].appl.middleware.ExampleService proof_requested ETV
vector 24 World.node[5].appl.middleware.ExampleService proof_size ETV
vector 25 World.node[5].appl.middleware.ExampleService proof_requested ETV
vector 26 World.node[4].appl.middleware.ExampleService proof_size ETV
vector 27 World.node[4].appl.middleware.ExampleService proof_requested ETV
11	3600 27 53629 53629 59.054966247594 59.054966247594 1 2 2 2 4
10	3627 27 53629 53629 59.054966247594 59.054966247594 1 1 1 1 1
vector 28 World.node[20].appl.middleware.ExampleService proof_size ETV
vector 29 World.node[20].appl.middleware.ExampleService proof_requested ETV
vector 30 World.node[24].appl.middleware.ExampleService proof_size ETV
vector 31 World.node[24].appl.middleware.ExampleService proof_requested ETV
5	3948 54 24723 209669 44.081822672207 104.081822672207 2 2 6 8 40
4	4002 54 24723 209669 44.081822672207 104.081822672207 2 1 2 3 5
vector 32 World.node[15].appl.middleware.ExampleService proof_size ETV
vector 33 World.node[15].appl.middleware.ExampleService proof_requested ETV
vector 34 World.node[27].appl.middleware.ExampleService proof_size ETV
vector 35 World.node[27].appl.middleware.ExampleService proof_requested ETV
vector 36 World.node[28].appl.middleware.ExampleService proof_size ETV
vector 37 World.node[28].appl.middleware.ExampleService proof_requested ETV
vector 38 World.node[17].appl.middleware.ExampleService proof_size ETV
vector 39 World.node[17].appl.middleware.ExampleService proof_requested ETV
vector 40 World.node[14].appl.middleware.ExampleService proof_size ETV
vector 41 World.node[14].appl.middleware.ExampleService proof_requested ETV
vector 42 World.node[18].appl.middleware.ExampleService proof_size ETV
vector 43 World.node[18].appl.middleware.ExampleService proof_requested ETV
vector 44 World.node[10].appl.middleware.ExampleService proof_size ETV
vector 45 World.node[10].appl.middleware.ExampleService proof_requested ETV
vector 46 World.node[22].appl.middleware.ExampleService proof_size ETV
vector 47 World.node[22].appl.middleware.ExampleService proof_requested ETV
vector 48 World.node[26].appl.middleware.ExampleService proof_size ETV
vector 49 World.node[26].appl.middleware.ExampleService proof_requested ETV
vector 50 World.node[25].appl.middleware.ExampleService proof_size ETV
vector 51 World.node[25].appl.middleware.ExampleService proof_requested ETV
19	5526 56 89499 408591 74.091671461589 134.091671461589 2 2 5 7 29
18	5582 56 89499 408591 74.091671461589 134.091671461589 2 0 1 1 1
vector 52 World.node[32].appl.middleware.ExampleService proof_size ETV
vector 53 World.node[32].appl.middleware.ExampleService proof_requested ETV
21	5785 57 106257 453513 79.009896849538 139.009896849538 2 4 5 9 41
20	5842 57 106257 453513 79.009896849538 139.009896849538 2 0 1 1 1
47	5899 29 417686 417686 135.070001642954 135.070001642954 1 2 2 2 4
46	5928 29 417686 417686 135.070001642954 135.070001642954 1 2 2 2 4
vector 54 World.node[23].appl.middleware.ExampleService proof_size ETV
vector 55 World.node[23].appl.middleware.ExampleService proof_requested ETV
15	6104 55 67044 352391 64.137142479161 127.06754110211 2 2 6 8 40
14	6159 55 67044 352391 64.137142479161 127.06754110211 2 2 2 4 8
vector 56 World.node[29].appl.middleware.ExampleService proof_size ETV
vector 57 World.node[29].appl.middleware.ExampleService proof_requested ETV
7	6361 54 35013 260129 50.148462912875 113.032505680341 2 3 9 12 90
6	6415 54 35013 260129 50.148462912875 113.032505680341 2 2 3 5 13
vector 58 World.node[31].appl.middleware.ExampleService proof_size ETV
vector 59 World.node[31].appl.middleware.ExampleService proof_requested ETV
vector 60 World.node[37].appl.middleware.ExampleService proof_size ETV
vector 61 World.node[37].appl.middleware.ExampleService proof_requested ETV
vector 62 World.node[34].appl.middleware.ExampleService proof_size ETV
vector 63 World.node[34].appl.middleware.ExampleService proof_requested ETV
vector 64 World.node[38].appl.middleware.ExampleService proof_size ETV
vector 65 World.node[38].appl.middleware.ExampleService proof_requested ETV
vector 66 World.node[30].appl.middleware.ExampleService proof_size ETV
vector 67 World.node[30].appl.middleware.ExampleService proof_requested ETV
vector 68 World.node[33].appl.middleware.ExampleService proof_size ETV
vector 69 World.node[33].appl.middleware.ExampleService proof_requested ETV
vector 70 World.node[35].appl.middleware.ExampleService proof_size ETV
vector 71 World.node[35].appl.middleware.ExampleService proof_requested ETV
vector 72 World.node[44].appl.middleware.ExampleService proof_size ETV
vector 73 World.node[44].appl.middleware.ExampleService proof_requested ETV
71	7645 27 791876 791876 175.0582344346 175.0582344346 1 1 1 1 1
70	7672 27 791876 791876 175.0582344346 175.0582344346 1 1 1 1 1
33	7699 57 257045 766067 112.07702522995 172.07702522995 2 6 11 17 157
32	7756 56 257045 766067 112.07702522995 172.07702522995 2 5 5 10 50
17	7812 57 89380 434404 74.073156825966 137.072794114752 2 1 10 11 101
16	7869 56 89380 434404 74.073156825966 137.072794114752 2 1 3 4 10
41	7925 29 377316 377316 130.140150327876 130.140150327876 1 4 4 4 16
40	7954 29 377316 377316 130.140150327876 130.140150327876 1 4 4 4 16
vector 74 World.node[36].appl.middleware.ExampleService proof_size ETV
vector 75 World.node[36].appl.middleware.ExampleService proof_requested ETV
45	8130 59 406335 1003499 134.025280921441 194.025280921441 2 6 7 13 85
44	8189 59 406335 1003499 134.025280921441 194.025280921441 2 1 2 3 5
vector 76 World.node[42].appl.middleware.ExampleService proof_size ETV
vector 77 World.node[42].appl.middleware.ExampleService proof_requested ETV
vector 78 World.node[45].appl.middleware.ExampleService proof_size ETV
vector 79 World.node[45].appl.middleware.ExampleService proof_requested ETV
9	8542 83 47382 827345 56.088717995536 179.088352168864 3 1 12 16 154
8	8625 82 47382 827345 56.088717995536 179.088352168864 3 1 3 5 11
vector 80 World.node[39].appl.middleware.ExampleService proof_size ETV
vector 81 World.node[39].appl.middleware.ExampleService proof_requested ETV
67	8854 30 766279 766279 172.087935010158 172.087935010158 1 10 10 10 100
66	8884 29 766279 766279 172.087935010158 172.087935010158 1 1 1 1 1
vector 82 World.node[47].appl.middleware.ExampleService proof_size ETV
vector 83 World.node[47].appl.middleware.ExampleService proof_requested ETV
vector 84 World.node[41].appl.middleware.ExampleService proof_size ETV
vector 85 World.node[41].appl.middleware.ExampleService proof_requested ETV
vector 86 World.node[46].appl.middleware.ExampleService proof_size ETV
vector 87 World.node[46].appl.middleware.ExampleService proof_requested ETV
35	9354 60 260575 773436 113.080043262476 173.080043262476 2 10 10 20 200
34	9414 58 260575 773436 113.080043262476 173.080043262476 2 5 9 14 106
69	9472 30 772841 772841 173.053343567299 173.053343567299 1 10 10 10 100
68	9502 29 772841 772841 173.053343567299 173.053343567299 1 3 3 3 9
vector 88 World.node[53].appl.middleware.ExampleService proof_size ETV
vector 89 World.node[53].appl.middleware.ExampleService proof_requested ETV
vector 90 World.node[43].appl.middleware.ExampleService proof_size ETV
vector 91 World.node[43].appl.middleware.ExampleService proof_requested ETV
vector 92 World.node[51].appl.middleware.ExampleService proof_size ETV
vector 93 World.node[51].appl.middleware.ExampleService proof_requested ETV
59	9972 59 711867 1357963 167.050258508581 224.110622154561 2 1 9 10 82
58	10031 59 711867 1357963 167.050258508581 224.110622154561 2 1 2 3 5
31	10090 88 232210 1414639 108.041004534974 228.041004534974 3 2 6 13 65
30	10178 88 232210 1414639 108.041004534974 228.041004534974 3 0 3 5 13
13	10266 116 59053 1603367 61.092614870089 241.063861099886 4 1 13 22 202
12	10382 115 59053 1603367 61.092614870089 241.063861099886 4 1 4 11 37
vector 94 World.node[57].appl.middleware.ExampleService proof_size ETV
vector 95 World.node[57].appl.middleware.ExampleService proof_requested ETV
89	10644 30 1459496 1459496 231.003744740156 231.003744740156 1 4 4 4 16
88	10674 30 1459496 1459496 231.003744740156 231.003744740156 1 2 2 2 4
vector 96 World.node[54].appl.middleware.ExampleService proof_size ETV
vector 97 World.node[54].appl.middleware.ExampleService proof_requested ETV
vector 98 World.node[48].appl.middleware.ExampleService proof_size ETV
vector 99 World.node[48].appl.middleware.ExampleService proof_requested ETV
vector 100 World.node[50].appl.middleware.ExampleService proof_size ETV
vector 101 World.node[50].appl.middleware.ExampleService proof_requested ETV
49	11147 59 460541 1070939 140.004050229723 200.004050229723 2 4 5 9 41
48	11206 59 460541 1070939 140.004050229723 200.004050229723 2 0 3 3 9
65	11265 60 765037 1475963 172.032369075064 232.032369075064 2 3 10 13 109
64	11325 59 765037 1475963 172.032369075064 232.032369075064 2 2 4 6 20
vector 102 World.node[62].appl.middleware.ExampleService proof_size ETV
vector 103 World.node[62].appl.middleware.ExampleService proof_requested ETV
vector 104 World.node[49].appl.middleware.ExampleService proof_size ETV
vector 105 World.node[49].appl.middleware.ExampleService proof_requested ETV
vector 106 World.node[55].appl.middleware.ExampleService proof_size ETV
vector 107 World.node[55].appl.middleware.ExampleService proof_requested ETV
vector 108 World.node[52].appl.middleware.ExampleService proof_size ETV
vector 109 World.node[52].appl.middleware.ExampleService proof_requested ETV
vector 110 World.node[61].appl.middleware.ExampleService proof_size ETV
vector 111 World.node[61].appl.middleware.ExampleService proof_requested ETV
97	12129 31 1641471 1641471 244.033244148362 244.033244148362 1 14 14 14 196
96	12160 30 1641471 1641471 244.033244148362 244.033244148362 1 2 2 2 4
vector 112 World.node[59].appl.middleware.ExampleService proof_size ETV
vector 113 World.node[59].appl.middleware.ExampleService proof_requested ETV
29	12339 87 227130 1446429 107.101122421657 230.08096138516 3 1 14 24 278
28	12426 86 227130 1446429 107.101122421657 230.08096138516 3 1 7 11 59
27	12512 86 190229 1307156 100.07974049435 220.07974049435 3 4 10 22 180
26	12598 85 190229 1307156 100.07974049435 220.07974049435 3 0 1 1 1
75	12683 58 994849 1766415 193.01468996855 253.01468996855 2 9 13 22 250
74	12741 57 994849 1766415 193.01468996855 253.01468996855 2 1 5 6 26
51	12798 91 481761 1892329 142.033034499502 262.033034499502 3 6 11 27 257
50	12889 89 481761 1892329 142.033034499502 262.033034499502 3 0 3 6 18
vector 114 World.node[56].appl.middleware.ExampleService proof_size ETV
vector 115 World.node[56].appl.middleware.ExampleService proof_requested ETV
23	13127 118 122917 1919417 84.022830495518 264.022830495518 4 3 11 22 164
22	13245 117 122917 1919417 84.022830495518 264.022830495518 4 0 4 8 24
43	13362 88 392189 1754580 132.066323278984 252.066323278984 3 1 5 10 42
42	13450 88 392189 1754580 132.066323278984 252.066323278984 3 1 1 3 3
vector 116 World.node[60].appl.middleware.ExampleService proof_size ETV
vector 117 World.node[60].appl.middleware.ExampleService proof_requested ETV
37	13687 88 352606 1647127 127.078410594445 244.26107382585 3 5 15 29 331
36	13775 87 352606 1647127 127.078410594445 244.26107382585 3 1 9 16 118
115	13862 31 2123100 2123100 279.022456026858 279.022456026858 1 1 1 1 1
114	13893 31 2123100 2123100 279.022456026858 279.022456026858 1 1 1 1 1
25	13924 118 138390 1965391 88.009037037799 268.009037037799 4 3 14 29 279
24	14042 117 138390 1965391 88.009037037799 268.009037037799 4 0 5 11 43
vector 118 World.node[65].appl.middleware.ExampleService proof_size ETV
vector 119 World.node[65].appl.middleware.ExampleService proof_requested ETV
vector 120 World.node[58].appl.middleware.ExampleService proof_size ETV
vector 121 World.node[58].appl.middleware.ExampleService proof_requested ETV
vector 122 World.node[72].appl.middleware.ExampleService proof_size ETV
vector 123 World.node[72].appl.middleware.ExampleService proof_requested ETV
vector 124 World.node[66].appl.middleware.ExampleService proof_size ETV
vector 125 World.node[66].appl.middleware.ExampleService proof_requested ETV
vector 126 World.node[67].appl.middleware.ExampleService proof_size ETV
vector 127 World.node[67].appl.middleware.ExampleService proof_requested ETV
vector 128 World.node[64].appl.middleware.ExampleService proof_size ETV
vector 129 World.node[64].appl.middleware.ExampleService proof_requested ETV
vector 130 World.node[69].appl.middleware.ExampleService proof_size ETV
vector 131 World.node[69].appl.middleware.ExampleService proof_requested ETV
81	15202 61 1133832 1934313 205.092577066645 265.092577066645 2 8 11 19 185
80	15263 60 1133832 1934313 205.092577066645 265.092577066645 2 0 2 2 4
127	15323 31 2473136 2473136 306.055586099322 306.055586099322 1 3 3 3 9
126	15354 31 2473136 2473136 306.055586099322 306.055586099322 1 2 2 2 4
vector 132 World.node[71].appl.middleware.ExampleService proof_size ETV
vector 133 World.node[71].appl.middleware.ExampleService proof_requested ETV
vector 134 World.node[70].appl.middleware.ExampleService proof_size ETV
vector 135 World.node[70].appl.middleware.ExampleService proof_requested ETV
vector 136 World.node[78].appl.middleware.ExampleService proof_size ETV
vector 137 World.node[78].appl.middleware.ExampleService proof_requested ETV
vector 138 World.node[75].appl.middleware.ExampleService proof_size ETV
vector 139 World.node[75].appl.middleware.ExampleService proof_requested ETV
95	15981 61 1614028 2417313 242.011868476728 302.011868476728 2 7 16 23 305
94	16042 60 1614028 2417313 242.011868476728 302.011868476728 2 3 4 7 25
vector 140 World.node[81].appl.middleware.ExampleService proof_size ETV
vector 141 World.node[81].appl.middleware.ExampleService proof_requested ETV
vector 142 World.node[73].appl.middleware.ExampleService proof_size ETV
vector 143 World.node[73].appl.middleware.ExampleService proof_requested ETV
53	16400 121 511916 2753351 145.031736165937 325.031736165937 4 4 12 36 368
52	16521 119 511916 2753351 145.031736165937 325.031736165937 4 1 7 13 63
vector 144 World.node[77].appl.middleware.ExampleService proof_size ETV
vector 145 World.node[77].appl.middleware.ExampleService proof_requested ETV
55	16789 120 569234 2802645 151.070931461616 328.074842612415 4 1 15 30 324
54	16909 119 569234 2802645 151.070931461616 328.074842612415 4 1 3 8 20
vector 146 World.node[74].appl.middleware.ExampleService proof_size ETV
vector 147 World.node[74].appl.middleware.ExampleService proof_requested ETV
109	17177 64 1931905 2752698 265.016116711847 325.016116711847 2 10 13 23 269
108	17241 62 1931905 2752698 265.016116711847 325.016116711847 2 0 2 2 4
vector 148 World.node[82].appl.middleware.ExampleService proof_size ETV
vector 149 World.node[82].appl.middleware.ExampleService proof_requested ETV
61	17452 89 733301 2288701 169.011678201292 292.011312349071 3 1 7 14 86
60	17541 89 733301 2288701 169.011678201292 292.011312349071 3 1 1 3 3
91	17630 60 1489145 2301654 233.058888817276 293.058888817276 2 7 8 15 113
90	17690 60 1489145 2301654 233.058888817276 293.058888817276 2 3 5 8 34
vector 150 World.node[76].appl.middleware.ExampleService proof_size ETV
vector 151 World.node[76].appl.middleware.ExampleService proof_requested ETV
121	17899 31 2393585 2393585 300.014732892555 300.014732892555 1 7 7 7 49
120	17930 31 2393585 2393585 300.014732892555 300.014732892555 1 3 3 3 9
39	17961 119 353251 2450021 127.092084705946 304.119758698044 4 4 25 46 786
38	18080 118 353251 2450021 127.092084705946 304.119758698044 4 2 5 16 70
113	18198 64 2016419 2863735 272.048030217108 332.048030217108 2 10 10 20 200
112	18262 62 2016419 2863735 272.048030217108 332.048030217108 2 2 4 6 20
83	18324 91 1307655 3010624 220.096032572887 340.096032572887 3 6 14 29 313
82	18415 90 1307655 3010624 220.096032572887 340.096032572887 3 3 5 12 50
vector 152 World.node[87].appl.middleware.ExampleService proof_size ETV
vector 153 World.node[87].appl.middleware.ExampleService proof_requested ETV
105	18654 63 1833549 2643556 258.019888399821 318.019888399821 2 8 10 18 164
104	18717 62 1833549 2643556 258.019888399821 318.019888399821 2 3 4 7 25
107	18779 64 1834564 2644895 258.059649547958 318.059649547958 2 11 12 23 265
106	18843 62 1834564 2644895 258.059649547958 318.059649547958 2 2 4 6 20
vector 154 World.node[91].appl.middleware.ExampleService proof_size ETV
vector 155 World.node[91].appl.middleware.ExampleService proof_requested ETV
vector 156 World.node[80].appl.middleware.ExampleService proof_size ETV
vector 157 World.node[80].appl.middleware.ExampleService proof_requested ETV
vector 158 World.node[83].appl.middleware.ExampleService proof_size ETV
vector 159 World.node[83].appl.middleware.ExampleService proof_requested ETV
85	19352 91 1343103 3061747 223.016886246996 343.016886246996 3 7 11 26 234
84	19443 90 1343103 3061747 223.016886246996 343.016886246996 3 2 4 9 29
vector 160 World.node[84].appl.middleware.ExampleService proof_size ETV
vector 161 World.node[84].appl.middleware.ExampleService proof_requested ETV
63	19682 120 755022 3204687 171.028453618404 351.028453618404 4 6 17 38 442
62	19802 119 755022 3204687 171.028453618404 351.028453618404 4 1 5 13 51
117	19921 63 2198223 3095104 285.010131658707 345.010131658707 2 7 12 19 193
116	19984 62 2198223 3095104 285.010131658707 345.010131658707 2 1 6 7 37
77	20046 92 1049642 2644677 198.055289640999 318.055289640999 3 5 16 32 402
76	20138 90 1049642 2644677 198.055289640999 318.055289640999 3 2 6 12 56
vector 162 World.node[98].appl.middleware.ExampleService proof_size ETV
vector 163 World.node[98].appl.middleware.ExampleService proof_requested ETV
vector 164 World.node[92].appl.middleware.ExampleService proof_size ETV
vector 165 World.node[92].appl.middleware.ExampleService proof_requested ETV
vector 166 World.node[90].appl.middleware.ExampleService proof_size ETV
vector 167 World.node[90].appl.middleware.ExampleService proof_requested ETV
vector 168 World.node[86].appl.middleware.ExampleService proof_size ETV
vector 169 World.node[86].appl.middleware.ExampleService proof_requested ETV
vector 170 World.node[88].appl.middleware.ExampleService proof_size ETV
vector 171 World.node[88].appl.middleware.ExampleService proof_requested ETV
vector 172 World.node[97].appl.middleware.ExampleService proof_size ETV
vector 173 World.node[97].appl.middleware.ExampleService proof_requested ETV
vector 174 World.node[100].appl.middleware.ExampleService proof_size ETV
vector 175 World.node[100].appl.middleware.ExampleService proof_requested ETV
123	21273 63 2397151 3343514 300.085973097733 360.085973097733 2 2 20 22 404
122	21336 62 2397151 3343514 300.085973097733 360.085973097733 2 1 6 7 37
vector 176 World.node[101].appl.middleware.ExampleService proof_size ETV
vector 177 World.node[101].appl.middleware.ExampleService proof_requested ETV
57	21549 119 682592 3079671 164.043147651223 344.043147651223 4 5 9 28 206
56	21668 119 682592 3079671 164.043147651223 344.043147651223 4 2 4 13 45
vector 178 World.node[96].appl.middleware.ExampleService proof_size ETV
vector 179 World.node[96].appl.middleware.ExampleService proof_requested ETV
vector 180 World.node[89].appl.middleware.ExampleService proof_size ETV
vector 181 World.node[89].appl.middleware.ExampleService proof_requested ETV
87	22085 122 1386095 4197867 226.081014893996 406.081014893996 4 5 15 35 375
86	22207 120 1386095 4197867 226.081014893996 406.081014893996 4 0 8 15 101
vector 182 World.node[102].appl.middleware.ExampleService proof_size ETV
vector 183 World.node[102].appl.middleware.ExampleService proof_requested ETV
93	22478 93 1489633 3237190 233.073258697591 353.073258697591 3 10 16 37 477
92	22571 90 1489633 3237190 233.073258697591 353.073258697591 3 3 7 17 107
vector 184 World.node[104].appl.middleware.ExampleService proof_size ETV
vector 185 World.node[104].appl.middleware.ExampleService proof_requested ETV
vector 186 World.node[94].appl.middleware.ExampleService proof_size ETV
vector 187 World.node[94].appl.middleware.ExampleService proof_requested ETV
141	22961 63 2917620 3992066 335.084115077672 395.084115077672 2 4 10 14 116
140	23024 62 2917620 3992066 335.084115077672 395.084115077672 2 0 1 1 1
vector 188 World.node[85].appl.middleware.ExampleService proof_size ETV
vector 189 World.node[85].appl.middleware.ExampleService proof_requested ETV
137	23235 63 2769267 3874634 326.096803597297 389.096432313928 2 1 13 14 170
136	23298 62 2769267 3874634 326.096803597297 389.096432313928 2 1 6 7 37
vector 190 World.node[93].appl.middleware.ExampleService proof_size ETV
vector 191 World.node[93].appl.middleware.ExampleService proof_requested ETV
vector 192 World.node[99].appl.middleware.ExampleService proof_size ETV
vector 193 World.node[99].appl.middleware.ExampleService proof_requested ETV
vector 194 World.node[95].appl.middleware.ExampleService proof_size ETV
vector 195 World.node[95].appl.middleware.ExampleService proof_requested ETV
73	23807 147 871079 4540464 183.01449586763 423.01449586763 5 6 13 50 534
72	23954 144 871079 4540464 183.01449586763 423.01449586763 5 0 4 11 33
119	24098 95 2372608 4445127 298.076631471515 418.076631471515 3 9 16 37 481
118	24193 93 2372608 4445127 298.076631471515 418.076631471515 3 3 9 20 154
vector 196 World.node[111].appl.middleware.ExampleService proof_size ETV
vector 197 World.node[111].appl.middleware.ExampleService proof_requested ETV
vector 198 World.node[114].appl.middleware.ExampleService proof_size ETV
vector 199 World.node[114].appl.middleware.ExampleService proof_requested ETV
vector 200 World.node[108].appl.middleware.ExampleService proof_size ETV
vector 201 World.node[108].appl.middleware.ExampleService proof_requested ETV
vector 202 World.node[103].appl.middleware.ExampleService proof_size ETV
vector 203 World.node[103].appl.middleware.ExampleService proof_requested ETV
125	24890 95 2432171 4543012 303.069861423271 423.069861423271 3 5 16 34 450
124	24985 93 2432171 4543012 303.069861423271 423.069861423271 3 1 5 9 35
111	25078 93 1957119 3895439 267.141071864769 390.097742336313 3 2 7 14 78
110	25171 93 1957119 3895439 267.141071864769 390.097742336313 3 2 2 6 12
147	25264 59 3147509 4232841 348.0270637376 408.0270637376 2 7 20 27 449
146	25323 58 3147509 4232841 348.0270637376 408.0270637376 2 1 9 10 82
185	25381 31 4338297 4338297 413.048125435947 413.048125435947 1 9 9 9 81
184	25412 31 4338297 4338297 413.048125435947 413.048125435947 1 5 5 5 25
vector 204 World.node[105].appl.middleware.ExampleService proof_size ETV
vector 205 World.node[105].appl.middleware.ExampleService proof_requested ETV
vector 206 World.node[113].appl.middleware.ExampleService proof_size ETV
vector 207 World.node[113].appl.middleware.ExampleService proof_requested ETV
151	25745 64 3251935 4360822 354.060264346632 414.060264346632 2 11 11 22 242
150	25809 62 3251935 4360822 354.060264346632 414.060264346632 2 2 5 7 29
139	25871 94 2816422 5128162 329.052255795849 449.052255795849 3 5 11 22 182
138	25965 93 2816422 5128162 329.052255795849 449.052255795849 3 1 4 7 21
vector 208 World.node[119].appl.middleware.ExampleService proof_size ETV
vector 209 World.node[119].appl.middleware.ExampleService proof_requested ETV
vector 210 World.node[116].appl.middleware.ExampleService proof_size ETV
vector 211 World.node[116].appl.middleware.ExampleService proof_requested ETV
129	26360 96 2516658 4675868 309.075027621374 429.075027621374 3 11 15 38 490
128	26456 93 2516658 4675868 309.075027621374 429.075027621374 3 5 8 20 138
vector 212 World.node[106].appl.middleware.ExampleService proof_size ETV
vector 213 World.node[106].appl.middleware.ExampleService proof_requested ETV
133	26700 95 2661437 4899363 319.067359653581 439.067359653581 3 7 17 39 563
132	26795 93 2661437 4899363 319.067359653581 439.067359653581 3 1 5 8 30
vector 214 World.node[118].appl.middleware.ExampleService proof_size ETV
vector 215 World.node[118].appl.middleware.ExampleService proof_requested ETV
189	27039 32 4377652 4377652 415.013374600746 415.013374600746 1 10 10 10 100
188	27071 31 4377652 4377652 415.013374600746 415.013374600746 1 5 5 5 25
vector 216 World.node[117].appl.middleware.ExampleService proof_size ETV
vector 217 World.node[117].appl.middleware.ExampleService proof_requested ETV
131	27253 95 2529263 4695796 310.034518129658 430.034518129658 3 9 11 30 302
130	27348 93 2529263 4695796 310.034518129658 430.034518129658 3 4 6 15 77
99	27441 120 1670657 4546238 246.02307391034 423.136713818673 4 3 14 38 426
98	27561 117 1670657 4546238 246.02307391034 423.136713818673 4 3 8 24 158
vector 218 World.node[115].appl.middleware.ExampleService proof_size ETV
vector 219 World.node[115].appl.middleware.ExampleService proof_requested ETV
159	27829 64 3595855 4788199 374.062624495733 434.062624495733 2 14 18 32 520
158	27893 62 3595855 4788199 374.062624495733 434.062624495733 2 1 8 9 65
vector 220 World.node[122].appl.middleware.ExampleService proof_size ETV
vector 221 World.node[122].appl.middleware.ExampleService proof_requested ETV
187	28106 64 4339532 5714997 413.075072873454 473.075072873454 2 11 13 24 290
186	28170 62 4339532 5714997 413.075072873454 473.075072873454 2 4 6 10 52
vector 222 World.node[107].appl.middleware.ExampleService proof_size ETV
vector 223 World.node[107].appl.middleware.ExampleService proof_requested ETV
vector 224 World.node[110].appl.middleware.ExampleService proof_size ETV
vector 225 World.node[110].appl.middleware.ExampleService proof_requested ETV
203	28534 32 4988273 4988273 443.039014844457 443.039014844457 1 13 13 13 169
202	28566 31 4988273 4988273 443.039014844457 443.039014844457 1 5 5 5 25
205	28597 32 5293696 5293696 455.070112010022 455.070112010022 1 16 16 16 256
204	28629 31 5293696 5293696 455.070112010022 455.070112010022 1 7 7 7 49
197	28660 32 4850335 4850335 437.010402652738 437.010402652738 1 12 12 12 144
196	28692 31 4850335 4850335 437.010402652738 437.010402652738 1 3 3 3 9
vector 226 World.node[112].appl.middleware.ExampleService proof_size ETV
vector 227 World.node[112].appl.middleware.ExampleService proof_requested ETV
101	28874 158 1714085 5964679 249.087216864526 486.133167972279 5 1 12 39 381
100	29032 155 1714085 5964679 249.087216864526 486.133167972279 5 1 4 11 31
201	29187 31 4923103 4923103 440.076603160705 440.076603160705 1 7 7 7 49
200	29218 31 4923103 4923103 440.076603160705 440.076603160705 1 3 3 3 9
vector 228 World.node[109].appl.middleware.ExampleService proof_size ETV
vector 229 World.node[109].appl.middleware.ExampleService proof_requested ETV
153	29400 95 3339981 5848827 360.032739438955 480.032739438955 3 2 20 38 660
152	29495 93 3339981 5848827 360.032739438955 480.032739438955 3 1 8 15 101
vector 230 World.node[120].appl.middleware.ExampleService proof_size ETV
vector 231 World.node[120].appl.middleware.ExampleService proof_requested ETV
171	29739 63 3948888 5230013 393.020716883545 453.020716883545 2 7 17 24 338
170	29802 62 3948888 5230013 393.020716883545 453.020716883545 2 2 4 6 20
177	29864 63 4012795 5322425 396.056487382413 456.056487382413 2 4 17 21 305
176	29927 63 4012795 5322425 396.056487382413 456.056487382413 2 1 13 14 170
vector 232 World.node[125].appl.middleware.ExampleService proof_size ETV
vector 233 World.node[125].appl.middleware.ExampleService proof_requested ETV
143	30141 96 2952023 5345040 337.021772270743 457.021772270743 3 10 13 34 390
142	30237 93 2952023 5345040 337.021772270743 457.021772270743 3 3 6 14 70
227	30330 31 6081477 6081477 493.040332130599 493.040332130599 1 8 8 8 64
226	30361 31 6081477 6081477 493.040332130599 493.040332130599 1 1 1 1 1
vector 234 World.node[123].appl.middleware.ExampleService proof_size ETV
vector 235 World.node[123].appl.middleware.ExampleService proof_requested ETV
vector 236 World.node[126].appl.middleware.ExampleService proof_size ETV
vector 237 World.node[126].appl.middleware.ExampleService proof_requested ETV
vector 238 World.node[121].appl.middleware.ExampleService proof_size ETV
vector 239 World.node[121].appl.middleware.ExampleService proof_requested ETV
149	30845 93 3204344 5672901 351.023551365826 471.023551365826 3 6 9 23 181
148	30938 93 3204344 5672901 351.023551365826 471.023551365826 3 1 4 9 33
223	31031 30 5831236 5831236 479.09554506659 479.09554506659 1 3 3 3 9
222	31061 30 5831236 5831236 479.09554506659 479.09554506659 1 2 2 2 4
103	31091 159 1779106 6097812 254.085969720036 494.085969720036 5 2 16 55 721
102	31250 155 1779106 6097812 254.085969720036 494.085969720036 5 1 4 17 65
145	31405 94 3062665 5498424 343.037915046164 463.037915046164 3 7 11 27 251
144	31499 93 3062665 5498424 343.037915046164 463.037915046164 3 2 4 9 29
vector 240 World.node[129].appl.middleware.ExampleService proof_size ETV
vector 241 World.node[129].appl.middleware.ExampleService proof_requested ETV
vector 242 World.node[124].appl.middleware.ExampleService proof_size ETV
vector 243 World.node[124].appl.middleware.ExampleService proof_requested ETV
215	31894 61 5564514 6662059 466.07348015999 526.064170401467 2 1 2 3 5
214	31955 61 5564514 6662059 466.07348015999 526.064170401467 2 1 2 3 5
vector 244 World.node[127].appl.middleware.ExampleService proof_size ETV
vector 245 World.node[127].appl.middleware.ExampleService proof_requested ETV
239	32167 32 6487955 6487955 516.073058986641 516.073058986641 1 13 13 13 169
238	32199 31 6487955 6487955 516.073058986641 516.073058986641 1 3 3 3 9
79	32230 183 1096186 6222255 202.019268452213 502.019268452213 6 6 13 58 604
78	32413 180 1096186 6222255 202.019268452213 502.019268452213 6 0 5 8 28
vector 246 World.node[130].appl.middleware.ExampleService proof_size ETV
vector 247 World.node[130].appl.middleware.ExampleService proof_requested ETV
213	32744 64 5516032 6627527 464.019835408847 524.019835408847 2 10 11 21 221
212	32808 62 5516032 6627527 464.019835408847 524.019835408847 2 2 3 5 13
243	32870 31 6744013 6744013 531.080879856413 531.080879856413 1 7 7 7 49
242	32901 31 6744013 6744013 531.080879856413 531.080879856413 1 3 3 3 9
169	32932 94 3927515 6357024 392.024323893548 509.189387357445 3 9 17 35 451
168	33026 93 3927515 6357024 392.024323893548 509.189387357445 3 2 9 15 101
181	33119 95 4178061 6645806 405.055807705945 525.055807705945 3 4 16 33 441
180	33214 93 4178061 6645806 405.055807705945 525.055807705945 3 4 5 14 66
vector 248 World.node[128].appl.middleware.ExampleService proof_size ETV
vector 249 World.node[128].appl.middleware.ExampleService proof_requested ETV
183	33458 90 4273493 6726894 410.06927610361 530.06927610361 3 4 8 17 105
182	33548 90 4273493 6726894 410.06927610361 530.06927610361 3 0 2 2 4
vector 250 World.node[135].appl.middleware.ExampleService proof_size ETV
vector 251 World.node[135].appl.middleware.ExampleService proof_requested ETV
155	33789 94 3539703 6047723 371.043699994427 491.043699994427 3 4 19 31 441
154	33883 93 3539703 6047723 371.043699994427 491.043699994427 3 3 5 11 43
vector 252 World.node[137].appl.middleware.ExampleService proof_size ETV
vector 253 World.node[137].appl.middleware.ExampleService proof_requested ETV
vector 254 World.node[133].appl.middleware.ExampleService proof_size ETV
vector 255 World.node[133].appl.middleware.ExampleService proof_requested ETV
221	34278 62 5737509 6828461 474.092707856058 537.021553613315 2 2 3 5 13
220	34340 62 5737509 6828461 474.092707856058 537.021553613315 2 1 2 3 5
209	34402 62 5473355 6596623 462.032593761804 522.032593761804 2 5 7 12 74
208	34464 62 5473355 6596623 462.032593761804 522.032593761804 2 1 3 4 10
vector 256 World.node[134].appl.middleware.ExampleService proof_size ETV
vector 257 World.node[134].appl.middleware.ExampleService proof_requested ETV
157	34677 124 3541565 7053752 371.081834697537 551.081834697537 4 5 9 30 234
156	34801 124 3541565 7053752 371.081834697537 551.081834697537 4 1 7 14 70
175	34925 96 3991556 6467129 395.080314772669 515.080314772669 3 11 18 44 670
174	35021 94 3991556 6467129 395.080314772669 515.080314772669 3 5 12 26 250
vector 258 World.node[131].appl.middleware.ExampleService proof_size ETV
vector 259 World.node[131].appl.middleware.ExampleService proof_requested ETV
vector 260 World.node[132].appl.middleware.ExampleService proof_size ETV
vector 261 World.node[132].appl.middleware.ExampleService proof_requested ETV
245	35417 31 6770611 6770611 533.020380122704 533.020380122704 1 7 7 7 49
244	35448 31 6770611 6770611 533.020380122704 533.020380122704 1 3 3 3 9
vector 262 World.node[140].appl.middleware.ExampleService proof_size ETV
vector 263 World.node[140].appl.middleware.ExampleService proof_requested ETV
237	35630 63 6405814 7402375 512.016001556604 572.016001556604 2 8 14 22 260
236	35693 62 6405814 7402375 512.016001556604 572.016001556604 2 5 7 12 74
vector 264 World.node[144].appl.middleware.ExampleService proof_size ETV
vector 265 World.node[144].appl.middleware.ExampleService proof_requested ETV
vector 266 World.node[141].appl.middleware.ExampleService proof_size ETV
vector 267 World.node[141].appl.middleware.ExampleService proof_requested ETV
217	36057 63 5604067 6692973 468.021067218715 528.021067218715 2 4 15 19 241
216	36120 62 5604067 6692973 468.021067218715 528.021067218715 2 0 0 0 0
vector 268 World.node[143].appl.middleware.ExampleService proof_size ETV
vector 269 World.node[143].appl.middleware.ExampleService proof_requested ETV
vector 270 World.node[136].appl.middleware.ExampleService proof_size ETV
vector 271 World.node[136].appl.middleware.ExampleService proof_requested ETV
251	36484 31 7042260 7042260 550.303012112644 550.303012112644 1 7 7 7 49
250	36515 31 7042260 7042260 550.303012112644 550.303012112644 1 7 7 7 49
vector 272 World.node[146].appl.middleware.ExampleService proof_size ETV
vector 273 World.node[146].appl.middleware.ExampleService proof_requested ETV
225	36697 62 5958688 6968902 486.003933560313 546.003933560313 2 9 9 18 162
224	36759 62 5958688 6968902 486.003933560313 546.003933560313 2 1 1 2 2
161	36821 126 3685473 7180088 379.027073407499 559.027073407499 4 3 16 33 381
160	36947 124 3685473 7180088 379.027073407499 559.027073407499 4 1 3 10 28
vector 274 World.node[138].appl.middleware.ExampleService proof_size ETV
vector 275 World.node[138].appl.middleware.ExampleService proof_requested ETV
193	37222 89 4626812 6986431 427.0323036141 547.0323036141 3 9 13 33 371
192	37311 87 4626812 6986431 427.0323036141 547.0323036141 3 3 5 11 43
167	37398 126 3911145 7389055 391.050404277025 571.050404277025 4 7 28 54 1014
166	37524 124 3911145 7389055 391.050404277025 571.050404277025 4 4 7 21 117
vector 276 World.node[139].appl.middleware.ExampleService proof_size ETV
vector 277 World.node[139].appl.middleware.ExampleService proof_requested ETV
231	37799 64 6241520 7247528 503.068338086922 563.068338086922 2 14 14 28 392
230	37863 62 6241520 7247528 503.068338086922 563.068338086922 2 2 4 6 20
191	37925 126 4563148 7954958 424.061299777497 604.061299777497 4 5 19 43 567
190	38051 124 4563148 7954958 424.061299777497 604.061299777497 4 2 7 15 71
vector 278 World.node[148].appl.middleware.ExampleService proof_size ETV
vector 279 World.node[148].appl.middleware.ExampleService proof_requested ETV
179	38326 127 4103549 7546337 401.040017958195 581.040017958195 4 4 15 45 587
178	38453 124 4103549 7546337 401.040017958195 581.040017958195 4 3 4 13 43
173	38577 126 3967839 7434032 394.007457421836 574.007457421836 4 4 17 38 462
172	38703 124 3967839 7434032 394.007457421836 574.007457421836 4 1 5 10 36
195	38827 126 4631671 8018637 427.096619578055 607.096619578055 4 8 15 41 453
194	38953 124 4631671 8018637 427.096619578055 607.096619578055 4 2 4 14 52
163	39077 127 3851064 7331434 388.006433241139 568.006433241139 4 5 18 47 639
162	39204 124 3851064 7331434 388.006433241139 568.006433241139 4 1 4 9 25
vector 280 World.node[142].appl.middleware.ExampleService proof_size ETV
vector 281 World.node[142].appl.middleware.ExampleService proof_requested ETV
vector 282 World.node[153].appl.middleware.ExampleService proof_size ETV
vector 283 World.node[153].appl.middleware.ExampleService proof_requested ETV
vector 284 World.node[147].appl.middleware.ExampleService proof_size ETV
vector 285 World.node[147].appl.middleware.ExampleService proof_requested ETV
vector 286 World.node[149].appl.middleware.ExampleService proof_size ETV
vector 287 World.node[149].appl.middleware.ExampleService proof_requested ETV
vector 288 World.node[145].appl.middleware.ExampleService proof_size ETV
vector 289 World.node[145].appl.middleware.ExampleService proof_requested ETV
211	40083 96 5496196 7579310 463.014537724829 583.014537724829 3 10 11 32 342
210	40179 93 5496196 7579310 463.014537724829 583.014537724829 3 1 2 5 9
247	40272 64 6855585 7859429 539.082127379696 599.082127379696 2 11 17 28 410
246	40336 62 6855585 7859429 539.082127379696 599.082127379696 2 1 3 4 10
241	40398 63 6595577 7606653 522.007680734066 585.007316860161 2 1 11 12 122
240	40461 62 6595577 7606653 522.007680734066 585.007316860161 2 1 4 5 17
165	40523 157 3892615 8334167 390.054492032691 630.054492032691 5 8 19 63 931
164	40680 155 3892615 8334167 390.054492032691 630.054492032691 5 1 7 22 126
vector 290 World.node[156].appl.middleware.ExampleService proof_size ETV
vector 291 World.node[156].appl.middleware.ExampleService proof_requested ETV
vector 292 World.node[161].appl.middleware.ExampleService proof_size ETV
vector 293 World.node[161].appl.middleware.ExampleService proof_requested ETV
255	41137 63 7084085 8116788 553.066283894866 613.066283894866 2 7 12 19 193
254	41200 62 7084085 8116788 553.066283894866 613.066283894866 2 2 3 5 13
vector 294 World.node[155].appl.middleware.ExampleService proof_size ETV
vector 295 World.node[155].appl.middleware.ExampleService proof_requested ETV
135	41413 190 2720569 8248958 323.036933022924 623.036933022924 6 2 18 69 1045
134	41603 186 2720569 8248958 323.036933022924 623.036933022924 6 2 8 23 115
vector 296 World.node[152].appl.middleware.ExampleService proof_size ETV
vector 297 World.node[152].appl.middleware.ExampleService proof_requested ETV
vector 298 World.node[162].appl.middleware.ExampleService proof_size ETV
vector 299 World.node[162].appl.middleware.ExampleService proof_requested ETV
vector 300 World.node[160].appl.middleware.ExampleService proof_size ETV
vector 301 World.node[160].appl.middleware.ExampleService proof_requested ETV
vector 302 World.node[157].appl.middleware.ExampleService proof_size ETV
vector 303 World.node[157].appl.middleware.ExampleService proof_requested ETV
vector 304 World.node[159].appl.middleware.ExampleService proof_size ETV
vector 305 World.node[159].appl.middleware.ExampleService proof_requested ETV
vector 306 World.node[163].appl.middleware.ExampleService proof_size ETV
vector 307 World.node[163].appl.middleware.ExampleService proof_requested ETV
279	42695 32 8054618 8054618 609.079339823523 609.079339823523 1 17 17 17 289
278	42727 32 8054618 8054618 609.079339823523 609.079339823523 1 10 10 10 100
207	42759 127 5368789 8456957 458.043077897932 638.043077897932 4 2 16 40 502
206	42886 124 5368789 8456957 458.043077897932 638.043077897932 4 1 8 22 154
267	43010 64 7482215 8444635 577.075852006534 637.075852006534 2 11 15 26 346
266	43074 62 7482215 8444635 577.075852006534 637.075852006534 2 2 5 7 29
vector 308 World.node[165].appl.middleware.ExampleService proof_size ETV
vector 309 World.node[165].appl.middleware.ExampleService proof_requested ETV
vector 310 World.node[158].appl.middleware.ExampleService proof_size ETV
vector 311 World.node[158].appl.middleware.ExampleService proof_requested ETV
vector 312 World.node[166].appl.middleware.ExampleService proof_size ETV
vector 313 World.node[166].appl.middleware.ExampleService proof_requested ETV
vector 314 World.node[168].appl.middleware.ExampleService proof_size ETV
vector 315 World.node[168].appl.middleware.ExampleService proof_requested ETV
vector 316 World.node[169].appl.middleware.ExampleService proof_size ETV
vector 317 World.node[169].appl.middleware.ExampleService proof_requested ETV
vector 318 World.node[171].appl.middleware.ExampleService proof_size ETV
vector 319 World.node[171].appl.middleware.ExampleService proof_requested ETV
293	44042 32 8414899 8414899 635.080101835332 635.080101835332 1 14 14 14 196
292	44074 31 8414899 8414899 635.080101835332 635.080101835332 1 1 1 1 1
249	44105 93 7006137 8895474 548.09460680373 668.09460680373 3 14 16 45 677
248	44198 90 7006137 8895474 548.09460680373 668.09460680373 3 4 7 17 101
277	44288 63 7952789 8833602 604.023665997363 664.023665997363 2 9 10 19 181
276	44351 62 7952789 8833602 604.023665997363 664.023665997363 2 4 6 10 52
vector 320 World.node[167].appl.middleware.ExampleService proof_size ETV
vector 321 World.node[167].appl.middleware.ExampleService proof_requested ETV
vector 322 World.node[173].appl.middleware.ExampleService proof_size ETV
vector 323 World.node[173].appl.middleware.ExampleService proof_requested ETV
vector 324 World.node[164].appl.middleware.ExampleService proof_size ETV
vector 325 World.node[164].appl.middleware.ExampleService proof_requested ETV
vector 326 World.node[175].appl.middleware.ExampleService proof_size ETV
vector 327 World.node[175].appl.middleware.ExampleService proof_requested ETV
235	45017 95 6393087 8349667 511.080055026338 631.080055026338 3 9 15 37 475
234	45112 94 6393087 8349667 511.080055026338 631.080055026338 3 0 11 16 146
199	45206 157 4904159 9124876 439.183268538601 682.022901384649 5 1 14 42 466
198	45363 155 4904159 9124876 439.183268538601 682.022901384649 5 1 6 13 51
253	45518 95 7053501 8944404 551.078211515397 671.078211515397 3 4 13 28 306
252	45613 93 7053501 8944404 551.078211515397 671.078211515397 3 1 3 7 19
vector 328 World.node[174].appl.middleware.ExampleService proof_size ETV
vector 329 World.node[174].appl.middleware.ExampleService proof_requested ETV
297	45857 31 8544418 8544418 644.002015340491 644.002015340491 1 7 7 7 49
296	45888 31 8544418 8544418 644.002015340491 644.002015340491 1 4 4 4 16
233	45919 128 6293917 9204376 506.032072527101 686.032072527101 4 11 17 53 723
232	46047 124 6293917 9204376 506.032072527101 686.032072527101 4 3 8 21 123
285	46171 63 8141697 9006812 615.000451931264 675.000451931264 2 9 12 21 225
284	46234 62 8141697 9006812 615.000451931264 675.000451931264 2 3 5 8 34
291	46296 64 8412002 9377395 635.023880944075 695.023880944075 2 10 16 26 356
290	46360 62 8412002 9377395 635.023880944075 695.023880944075 2 0 6 6 36
305	46422 31 8619814 8619814 649.086750895274 649.086750895274 1 7 7 7 49
304	46453 31 8619814 8619814 649.086750895274 649.086750895274 1 4 4 4 16
vector 330 World.node[180].appl.middleware.ExampleService proof_size ETV
vector 331 World.node[180].appl.middleware.ExampleService proof_requested ETV
vector 332 World.node[170].appl.middleware.ExampleService proof_size ETV
vector 333 World.node[170].appl.middleware.ExampleService proof_requested ETV
283	46786 62 8117145 8979580 613.088353228243 673.088353228243 2 4 9 13 97
282	46848 62 8117145 8979580 613.088353228243 673.088353228243 2 0 3 3 9
257	46910 93 7164436 9054760 558.041038676887 678.041038676887 3 5 8 20 138
256	47003 93 7164436 9054760 558.041038676887 678.041038676887 3 2 4 9 29
229	47096 127 6126957 9023363 496.041985677369 676.041985677369 4 8 15 45 533
228	47223 124 6126957 9023363 496.041985677369 676.041985677369 4 1 5 12 44
271	47347 94 7622095 9621088 586.037945889319 709.037584155938 3 1 16 21 273
270	47441 93 7622095 9621088 586.037945889319 709.037584155938 3 1 6 8 38
vector 334 World.node[176].appl.middleware.ExampleService proof_size ETV
vector 335 World.node[176].appl.middleware.ExampleService proof_requested ETV
vector 336 World.node[181].appl.middleware.ExampleService proof_size ETV
vector 337 World.node[181].appl.middleware.ExampleService proof_requested ETV
281	47836 64 8116408 8978971 613.061518216273 673.061518216273 2 10 18 28 424
280	47900 62 8116408 8978971 613.061518216273 673.061518216273 2 3 5 8 34
vector 338 World.node[179].appl.middleware.ExampleService proof_size ETV
vector 339 World.node[179].appl.middleware.ExampleService proof_requested ETV
vector 340 World.node[172].appl.middleware.ExampleService proof_size ETV
vector 341 World.node[172].appl.middleware.ExampleService proof_requested ETV
315	48264 63 8848792 9861075 665.079672841425 725.079672841425 2 7 11 18 170
314	48327 62 8848792 9861075 665.079672841425 725.079672841425 2 1 1 2 2
vector 342 World.node[185].appl.middleware.ExampleService proof_size ETV
vector 343 World.node[185].appl.middleware.ExampleService proof_requested ETV
275	48540 93 7878723 9768708 600.086909846007 720.086909846007 3 5 9 22 170
274	48633 93 7878723 9768708 600.086909846007 720.086909846007 3 1 6 11 53
vector 344 World.node[190].appl.middleware.ExampleService proof_size ETV
vector 345 World.node[190].appl.middleware.ExampleService proof_requested ETV
vector 346 World.node[177].appl.middleware.ExampleService proof_size ETV
vector 347 World.node[177].appl.middleware.ExampleService proof_requested ETV
263	49028 95 7418635 9343166 573.002688788623 693.002688788623 3 7 20 39 593
262	49123 93 7418635 9343166 573.002688788623 693.002688788623 3 3 8 17 109
vector 348 World.node[191].appl.middleware.ExampleService proof_size ETV
vector 349 World.node[191].appl.middleware.ExampleService proof_requested ETV
vector 350 World.node[182].appl.middleware.ExampleService proof_size ETV
vector 351 World.node[182].appl.middleware.ExampleService proof_requested ETV
vector 352 World.node[183].appl.middleware.ExampleService proof_size ETV
vector 353 World.node[183].appl.middleware.ExampleService proof_requested ETV
273	49669 95 7671775 9621199 589.038165003317 709.038165003317 3 4 13 27 285
272	49764 93 7671775 9621199 589.038165003317 709.038165003317 3 0 6 8 40
vector 354 World.node[187].appl.middleware.ExampleService proof_size ETV
vector 355 World.node[187].appl.middleware.ExampleService proof_requested ETV
vector 356 World.node[192].appl.middleware.ExampleService proof_size ETV
vector 357 World.node[192].appl.middleware.ExampleService proof_requested ETV
vector 358 World.node[178].appl.middleware.ExampleService proof_size ETV
vector 359 World.node[178].appl.middleware.ExampleService proof_requested ETV
vector 360 World.node[186].appl.middleware.ExampleService proof_size ETV
vector 361 World.node[186].appl.middleware.ExampleService proof_requested ETV
vector 362 World.node[188].appl.middleware.ExampleService proof_size ETV
vector 363 World.node[188].appl.middleware.ExampleService proof_requested ETV
219	50612 157 5714841 9675067 473.073644696502 713.073644696502 5 4 11 41 367
218	50769 155 5714841 9675067 473.073644696502 713.073644696502 5 2 5 17 65
317	50924 64 8882282 9903429 667.095768612274 727.095768612274 2 10 12 22 244
316	50988 62 8882282 9903429 667.095768612274 727.095768612274 2 2 4 6 20
303	51050 94 8578680 10614117 646.099783533928 766.099783533928 3 8 9 26 226
302	51144 94 8578680 10614117 646.099783533928 766.099783533928 3 1 4 8 26
vector 364 World.node[184].appl.middleware.ExampleService proof_size ETV
vector 365 World.node[184].appl.middleware.ExampleService proof_requested ETV
vector 366 World.node[189].appl.middleware.ExampleService proof_size ETV
vector 367 World.node[189].appl.middleware.ExampleService proof_requested ETV
261	51540 128 7388950 10351439 571.041486808402 751.041486808402 4 5 14 45 559
260	51668 125 7388950 10351439 571.041486808402 751.041486808402 4 1 7 18 100
325	51793 64 9225646 10273481 687.012469364284 747.012469364284 2 5 11 16 146
324	51857 63 9225646 10273481 687.012469364284 747.012469364284 2 1 3 4 10
vector 368 World.node[199].appl.middleware.ExampleService proof_size ETV
vector 369 World.node[199].appl.middleware.ExampleService proof_requested ETV
269	52071 128 7592105 10577963 584.020566932578 764.020566932578 4 3 14 39 447
268	52199 125 7592105 10577963 584.020566932578 764.020566932578 4 0 6 9 41
323	52324 64 9127449 10180857 682.067933171871 742.067933171871 2 7 12 19 193
322	52388 63 9127449 10180857 682.067933171871 742.067933171871 2 1 2 3 5
vector 370 World.node[195].appl.middleware.ExampleService proof_size ETV
vector 371 World.node[195].appl.middleware.ExampleService proof_requested ETV
vector 372 World.node[193].appl.middleware.ExampleService proof_size ETV
vector 373 World.node[193].appl.middleware.ExampleService proof_requested ETV
345	52753 32 10048329 10048329 735.072469243303 735.072469243303 1 2 2 2 4
344	52785 32 10048329 10048329 735.072469243303 735.072469243303 1 2 2 2 4
347	52817 32 10127419 10127419 739.144459494459 739.144459494459 1 1 1 1 1
346	52849 32 10127419 10127419 739.144459494459 739.144459494459 1 1 1 1 1
311	52881 95 8777758 10872549 660.120126751937 780.166275901416 3 1 13 18 186
310	52976 94 8777758 10872549 660.120126751937 780.166275901416 3 1 4 8 26
vector 374 World.node[194].appl.middleware.ExampleService proof_size ETV
vector 375 World.node[194].appl.middleware.ExampleService proof_requested ETV
vector 376 World.node[200].appl.middleware.ExampleService proof_size ETV
vector 377 World.node[200].appl.middleware.ExampleService proof_requested ETV
vector 378 World.node[203].appl.middleware.ExampleService proof_size ETV
vector 379 World.node[203].appl.middleware.ExampleService proof_requested ETV
265	53523 126 7433904 10406348 574.006167981378 754.006167981378 4 2 19 36 478
264	53649 125 7433904 10406348 574.006167981378 754.006167981378 4 1 4 8 22
vector 380 World.node[201].appl.middleware.ExampleService proof_size ETV
vector 381 World.node[201].appl.middleware.ExampleService proof_requested ETV
299	53925 94 8545674 10578932 644.04044197367 764.04044197367 3 11 12 35 409
298	54019 91 8545674 10578932 644.04044197367 764.04044197367 3 2 3 8 22
vector 382 World.node[202].appl.middleware.ExampleService proof_size ETV
vector 383 World.node[202].appl.middleware.ExampleService proof_requested ETV
375	54261 33 11172500 11172500 798.070370559162 798.070370559162 1 10 10 10 100
374	54294 32 11172500 11172500 798.070370559162 798.070370559162 1 4 4 4 16
vector 384 World.node[197].appl.middleware.ExampleService proof_size ETV
vector 385 World.node[197].appl.middleware.ExampleService proof_requested ETV
vector 386 World.node[198].appl.middleware.ExampleService proof_size ETV
vector 387 World.node[198].appl.middleware.ExampleService proof_requested ETV
319	54628 96 8895624 11023174 668.097565721697 788.097565721697 3 5 18 33 449
318	54724 94 8895624 11023174 668.097565721697 788.097565721697 3 1 4 7 21
321	54818 96 9126600 11235382 682.044467767747 802.044467767747 3 5 15 25 275
320	54914 96 9126600 11235382 682.044467767747 802.044467767747 3 1 11 15 131
vector 388 World.node[209].appl.middleware.ExampleService proof_size ETV
vector 389 World.node[209].appl.middleware.ExampleService proof_requested ETV
259	55161 161 7368320 11373082 570.004055458307 810.004055458307 5 7 23 65 995
258	55322 157 7368320 11373082 570.004055458307 810.004055458307 5 2 4 13 37
vector 390 World.node[211].appl.middleware.ExampleService proof_size ETV
vector 391 World.node[211].appl.middleware.ExampleService proof_requested ETV
vector 392 World.node[196].appl.middleware.ExampleService proof_size ETV
vector 393 World.node[196].appl.middleware.ExampleService proof_requested ETV
377	55781 32 11250780 11250780 803.028298656899 803.028298656899 1 9 9 9 81
376	55813 32 11250780 11250780 803.028298656899 803.028298656899 1 3 3 3 9
327	55845 97 9267409 11359154 689.065705947601 809.065705947601 3 1 16 27 357
326	55942 95 9267409 11359154 689.065705947601 809.065705947601 3 0 3 5 13
vector 394 World.node[208].appl.middleware.ExampleService proof_size ETV
vector 395 World.node[208].appl.middleware.ExampleService proof_requested ETV
vector 396 World.node[210].appl.middleware.ExampleService proof_size ETV
vector 397 World.node[210].appl.middleware.ExampleService proof_requested ETV
329	56339 97 9362258 11461832 694.025427601114 814.025427601114 3 5 17 37 539
328	56436 95 9362258 11461832 694.025427601114 814.025427601114 3 1 3 6 14
333	56531 98 9559066 11714219 705.084349665907 825.084349665907 3 10 14 37 465
332	56629 95 9559066 11714219 705.084349665907 825.084349665907 3 3 5 11 43
vector 398 World.node[205].appl.middleware.ExampleService proof_size ETV
vector 399 World.node[205].appl.middleware.ExampleService proof_requested ETV
vector 400 World.node[207].appl.middleware.ExampleService proof_size ETV
vector 401 World.node[207].appl.middleware.ExampleService proof_requested ETV
vector 402 World.node[206].appl.middleware.ExampleService proof_size ETV
vector 403 World.node[206].appl.middleware.ExampleService proof_requested ETV
385	57177 33 11440372 11440372 813.091079301341 813.091079301341 1 15 15 15 225
384	57210 32 11440372 11440372 813.091079301341 813.091079301341 1 5 5 5 25
vector 404 World.node[215].appl.middleware.ExampleService proof_size ETV
vector 405 World.node[215].appl.middleware.ExampleService proof_requested ETV
vector 406 World.node[216].appl.middleware.ExampleService proof_size ETV
vector 407 World.node[216].appl.middleware.ExampleService proof_requested ETV
339	57544 64 9860240 10964956 725.064047278627 785.064047278627 2 3 13 16 178
338	57608 63 9860240 10964956 725.064047278627 785.064047278627 2 2 7 9 53
387	57671 33 11460816 11460816 814.006336000841 814.006336000841 1 14 14 14 196
386	57704 32 11460816 11460816 814.006336000841 814.006336000841 1 0 0 0 0
vector 408 World.node[212].appl.middleware.ExampleService proof_size ETV
vector 409 World.node[212].appl.middleware.ExampleService proof_requested ETV
vector 410 World.node[204].appl.middleware.ExampleService proof_size ETV
vector 411 World.node[204].appl.middleware.ExampleService proof_requested ETV
vector 412 World.node[218].appl.middleware.ExampleService proof_size ETV
vector 413 World.node[218].appl.middleware.ExampleService proof_requested ETV
337	58189 94 9730973 12002932 717.147746831208 840.02831797807 3 5 13 24 230
336	58283 93 9730973 12002932 717.147746831208 840.02831797807 3 3 6 14 70
367	58376 66 10750466 11886085 774.006742662704 834.006742662704 2 12 28 40 928
366	58442 64 10750466 11886085 774.006742662704 834.006742662704 2 5 5 10 50
341	58506 98 9880617 12124677 726.034310614248 846.034310614248 3 11 13 37 459
340	58604 95 9880617 12124677 726.034310614248 846.034310614248 3 4 7 16 90
351	58699 66 10235998 11290621 745.067257674295 805.067257674295 2 11 15 26 346
350	58765 64 10235998 11290621 745.067257674295 805.067257674295 2 0 6 6 36
411	58829 30 12334638 12334638 857.051250282 857.051250282 1 13 13 13 169
410	58859 29 12334638 12334638 857.051250282 857.051250282 1 3 3 3 9
289	58888 159 8158050 12317882 616.064838898135 856.064838898135 5 6 10 41 345
288	59047 158 8158050 12317882 616.064838898135 856.064838898135 5 0 4 12 42
vector 414 World.node[220].appl.middleware.ExampleService proof_size ETV
vector 415 World.node[220].appl.middleware.ExampleService proof_requested ETV
295	59356 129 8501801 11561283 641.053188579273 818.177151291173 4 2 17 45 649
294	59485 126 8501801 11561283 641.053188579273 818.177151291173 4 2 7 16 78
313	59611 128 8834008 12085309 664.036159033119 844.036159033119 4 6 15 38 410
312	59739 126 8834008 12085309 664.036159033119 844.036159033119 4 2 5 15 63
vector 416 World.node[227].appl.middleware.ExampleService proof_size ETV
vector 417 World.node[227].appl.middleware.ExampleService proof_requested ETV
369	60016 66 10836696 11970611 778.097318910947 838.097318910947 2 11 16 27 377
368	60082 64 10836696 11970611 778.097318910947 838.097318910947 2 3 6 9 45
vector 418 World.node[224].appl.middleware.ExampleService proof_size ETV
vector 419 World.node[224].appl.middleware.ExampleService proof_requested ETV
vector 420 World.node[214].appl.middleware.ExampleService proof_size ETV
vector 421 World.node[214].appl.middleware.ExampleService proof_requested ETV
vector 422 World.node[217].appl.middleware.ExampleService proof_size ETV
vector 423 World.node[217].appl.middleware.ExampleService proof_requested ETV
vector 424 World.node[223].appl.middleware.ExampleService proof_size ETV
vector 425 World.node[223].appl.middleware.ExampleService proof_requested ETV
331	60750 130 9556428 12934590 705.012354936171 885.012354936171 4 4 17 47 661
330	60880 127 9556428 12934590 705.012354936171 885.012354936171 4 2 7 15 71
407	61007 32 12101101 12101101 845.043336850917 845.043336850917 1 7 7 7 49
406	61039 32 12101101 12101101 845.043336850917 845.043336850917 1 5 5 5 25
343	61071 96 9918163 12162946 728.061111606075 848.061111606075 3 1 21 26 458
342	61167 96 9918163 12162946 728.061111606075 848.061111606075 3 0 10 13 109
371	61263 65 10947299 12085443 784.036399528338 844.036399528338 2 5 20 25 425
370	61328 64 10947299 12085443 784.036399528338 844.036399528338 2 2 7 9 53
357	61392 96 10313663 12530872 749.084672087571 866.14504214735 3 1 14 22 246
356	61488 95 10313663 12530872 749.084672087571 866.14504214735 3 1 5 7 27
309	61583 159 8775085 13194305 660.031759372237 900.031759372237 5 2 13 34 318
308	61742 157 8775085 13194305 660.031759372237 900.031759372237 5 1 4 12 36
vector 426 World.node[232].appl.middleware.ExampleService proof_size ETV
vector 427 World.node[232].appl.middleware.ExampleService proof_requested ETV
vector 428 World.node[221].appl.middleware.ExampleService proof_size ETV
vector 429 World.node[221].appl.middleware.ExampleService proof_requested ETV
vector 430 World.node[213].appl.middleware.ExampleService proof_size ETV
vector 431 World.node[213].appl.middleware.ExampleService proof_requested ETV
301	62352 161 8559820 12938351 645.052925111027 885.052925111027 5 6 13 48 490
300	62513 158 8559820 12938351 645.052925111027 885.052925111027 5 0 9 19 117
363	62671 99 10443878 12737849 756.092243814492 876.092243814492 3 18 22 58 1132
362	62770 96 10443878 12737849 756.092243814492 876.092243814492 3 6 8 21 149
vector 432 World.node[226].appl.middleware.ExampleService proof_size ETV
vector 433 World.node[226].appl.middleware.ExampleService proof_requested ETV
349	63017 97 10179729 12443489 742.065039150161 862.065039150161 3 1 15 23 275
348	63114 96 10179729 12443489 742.065039150161 862.065039150161 3 0 3 3 9
409	63210 63 12261642 13419874 853.08884223206 913.08884223206 2 8 10 18 164
408	63273 62 12261642 13419874 853.08884223206 913.08884223206 2 1 3 4 10
vector 434 World.node[228].appl.middleware.ExampleService proof_size ETV
vector 435 World.node[228].appl.middleware.ExampleService proof_requested ETV
vector 436 World.node[230].appl.middleware.ExampleService proof_size ETV
vector 437 World.node[230].appl.middleware.ExampleService proof_requested ETV
vector 438 World.node[235].appl.middleware.ExampleService proof_size ETV
vector 439 World.node[235].appl.middleware.ExampleService proof_requested ETV
307	63788 160 8646794 13054262 651.005199158448 891.005199158448 5 6 16 50 558
306	63948 158 8646794 13054262 651.005199158448 891.005199158448 5 0 4 13 43
vector 440 World.node[236].appl.middleware.ExampleService proof_size ETV
vector 441 World.node[236].appl.middleware.ExampleService proof_requested ETV
vector 442 World.node[231].appl.middleware.ExampleService proof_size ETV
vector 443 World.node[231].appl.middleware.ExampleService proof_requested ETV
vector 444 World.node[229].appl.middleware.ExampleService proof_size ETV
vector 445 World.node[229].appl.middleware.ExampleService proof_requested ETV
355	64559 131 10293313 13609504 748.027742837672 925.142578672591 4 1 14 38 466
354	64690 128 10293313 13609504 748.027742837672 925.142578672591 4 1 6 14 66
vector 446 World.node[240].appl.middleware.ExampleService proof_size ETV
vector 447 World.node[240].appl.middleware.ExampleService proof_requested ETV
vector 448 World.node[242].appl.middleware.ExampleService proof_size ETV
vector 449 World.node[242].appl.middleware.ExampleService proof_requested ETV
399	65120 64 11951514 13195628 837.09296330503 900.092590614548 2 1 17 18 290
398	65184 63 11951514 13195628 837.09296330503 900.092590614548 2 1 1 2 2
421	65247 64 12980655 13950983 887.087273337203 947.087273337203 2 5 8 13 89
420	65311 64 12980655 13950983 887.087273337203 947.087273337203 2 1 2 3 5
353	65375 130 10274609 13635587 747.036053153966 927.036053153966 4 6 27 52 946
352	65505 128 10274609 13635587 747.036053153966 927.036053153966 4 3 9 21 131
365	65633 131 10660524 13983888 769.020620858786 949.020620858786 4 8 16 52 720
364	65764 128 10660524 13983888 769.020620858786 949.020620858786 4 1 8 15 83
vector 450 World.node[237].appl.middleware.ExampleService proof_size ETV
vector 451 World.node[237].appl.middleware.ExampleService proof_requested ETV
vector 452 World.node[234].appl.middleware.ExampleService proof_size ETV
vector 453 World.node[234].appl.middleware.ExampleService proof_requested ETV
287	66194 195 8157498 13471104 616.043552567321 916.043552567321 6 4 18 73 1009
286	66389 191 8157498 13471104 616.043552567321 916.043552567321 6 1 10 28 176
383	66580 95 11362333 13707082 809.1550952575 932.058267335268 3 1 11 17 147
382	66675 94 11362333 13707082 809.1550952575 932.058267335268 3 1 4 8 26
vector 454 World.node[239].appl.middleware.ExampleService proof_size ETV
vector 455 World.node[239].appl.middleware.ExampleService proof_requested ETV
433	66920 32 13523689 13523689 919.052632745844 919.052632745844 1 6 6 6 36
432	66952 32 13523689 13523689 919.052632745844 919.052632745844 1 1 1 1 1
417	66984 63 12900520 13881973 883.07595391327 943.07595391327 2 7 15 22 274
416	67047 62 12900520 13881973 883.07595391327 943.07595391327 2 0 3 3 9
vector 456 World.node[244].appl.middleware.ExampleService proof_size ETV
vector 457 World.node[244].appl.middleware.ExampleService proof_requested ETV
361	67260 132 10406991 13734641 754.027145271562 934.027145271562 4 13 15 55 759
360	67392 128 10406991 13734641 754.027145271562 934.027145271562 4 0 5 10 42
vector 458 World.node[245].appl.middleware.ExampleService proof_size ETV
vector 459 World.node[245].appl.middleware.ExampleService proof_requested ETV
391	67671 98 11604672 13788198 820.157046225923 937.155093339996 3 5 14 32 390
390	67769 96 11604672 13788198 820.157046225923 937.155093339996 3 0 8 13 89
vector 460 World.node[246].appl.middleware.ExampleService proof_size ETV
vector 461 World.node[246].appl.middleware.ExampleService proof_requested ETV
379	68016 96 11254514 13622561 803.155349300607 926.094988709968 3 1 6 13 73
378	68112 96 11254514 13622561 803.155349300607 926.094988709968 3 1 3 5 11
389	68208 98 11579412 13817125 819.033100981289 939.033100981289 3 7 19 43 699
388	68306 97 11579412 13817125 819.033100981289 939.033100981289 3 3 11 20 166
413	68403 96 12352788 14421297 858.000565465866 975.106016301625 3 1 6 10 46
412	68499 96 12352788 14421297 858.000565465866 975.106016301625 3 0 1 2 2
393	68595 98 11620618 13850831 821.064236382046 941.064236382046 3 5 16 36 506
392	68693 96 11620618 13850831 821.064236382046 941.064236382046 3 4 8 19 129
vector 462 World.node[243].appl.middleware.ExampleService proof_size ETV
vector 463 World.node[243].appl.middleware.ExampleService proof_requested ETV
359	68940 164 10385247 14661563 753.029677476035 993.029677476035 5 9 18 70 1038
358	69104 160 10385247 14661563 753.029677476035 993.029677476035 5 2 7 22 114
381	69264 130 11308004 14602807 806.066847093359 989.012959559541 4 1 15 39 503
380	69394 128 11308004 14602807 806.066847093359 989.012959559541 4 1 3 7 15
395	69522 98 11778379 13968753 828.099039717671 948.099039717671 3 5 18 39 605
394	69620 96 11778379 13968753 828.099039717671 948.099039717671 3 2 7 11 57
vector 464 World.node[250].appl.middleware.ExampleService proof_size ETV
vector 465 World.node[250].appl.middleware.ExampleService proof_requested ETV
vector 466 World.node[248].appl.middleware.ExampleService proof_size ETV
vector 467 World.node[248].appl.middleware.ExampleService proof_requested ETV
vector 468 World.node[252].appl.middleware.ExampleService proof_size ETV
vector 469 World.node[252].appl.middleware.ExampleService proof_requested ETV
423	70169 66 12999986 13965777 888.025372569985 948.025372569985 2 16 19 35 617
422	70235 64 12999986 13965777 888.025372569985 948.025372569985 2 6 9 15 117
vector 470 World.node[254].appl.middleware.ExampleService proof_size ETV
vector 471 World.node[254].appl.middleware.ExampleService proof_requested ETV
443	70450 64 13765984 14711354 936.007214472769 996.007214472769 2 8 8 16 128
442	70514 64 13765984 14711354 936.007214472769 996.007214472769 2 4 4 8 32
415	70578 94 12692180 14679521 874.00630852147 994.00630852147 3 4 19 28 402
414	70672 94 12692180 14679521 874.00630852147 994.00630852147 3 0 11 13 125
vector 472 World.node[255].appl.middleware.ExampleService proof_size ETV
vector 473 World.node[255].appl.middleware.ExampleService proof_requested ETV
vector 474 World.node[249].appl.middleware.ExampleService proof_size ETV
vector 475 World.node[249].appl.middleware.ExampleService proof_requested ETV
vector 476 World.node[259].appl.middleware.ExampleService proof_size ETV
vector 477 World.node[259].appl.middleware.ExampleService proof_requested ETV
vector 478 World.node[256].appl.middleware.ExampleService proof_size ETV
vector 479 World.node[256].appl.middleware.ExampleService proof_requested ETV
437	71370 66 13554327 14506083 921.094485563319 981.094485563319 2 16 21 37 697
436	71436 64 13554327 14506083 921.094485563319 981.094485563319 2 0 3 3 9
vector 480 World.node[247].appl.middleware.ExampleService proof_size ETV
vector 481 World.node[247].appl.middleware.ExampleService proof_requested ETV
405	71651 98 12084521 14239150 844.028272586362 964.028272586362 3 5 11 27 267
404	71749 96 12084521 14239150 844.028272586362 964.028272586362 3 0 5 7 29
403	71845 127 11982377 15015231 839.02414190534 1019.02414190534 4 3 20 43 641
402	71972 125 11982377 15015231 839.02414190534 1019.02414190534 4 2 7 17 87
441	72097 64 13620235 14566888 926.041106160637 986.041106160637 2 6 9 15 117
440	72161 64 13620235 14566888 926.041106160637 986.041106160637 2 3 3 6 18
431	72225 64 13418958 14434139 913.076213606568 976.075845750677 2 1 8 9 65
430	72289 64 13418958 14434139 913.076213606568 976.075845750677 2 1 3 4 10
vector 482 World.node[263].appl.middleware.ExampleService proof_size ETV
vector 483 World.node[263].appl.middleware.ExampleService proof_requested ETV
vector 484 World.node[251].appl.middleware.ExampleService proof_size ETV
vector 485 World.node[251].appl.middleware.ExampleService proof_requested ETV
373	72655 164 10947628 15074857 784.048752450384 1024.048752450384 5 9 14 56 646
372	72819 161 10947628 15074857 784.048752450384 1024.048752450384 5 0 7 22 138
vector 486 World.node[253].appl.middleware.ExampleService proof_size ETV
vector 487 World.node[253].appl.middleware.ExampleService proof_requested ETV
vector 488 World.node[257].appl.middleware.ExampleService proof_size ETV
vector 489 World.node[257].appl.middleware.ExampleService proof_requested ETV
401	73282 131 11966900 15004816 838.010848097643 1018.010848097643 4 5 20 42 582
400	73413 129 11966900 15004816 838.010848097643 1018.010848097643 4 0 3 6 14
vector 490 World.node[258].appl.middleware.ExampleService proof_size ETV
vector 491 World.node[258].appl.middleware.ExampleService proof_requested ETV
397	73693 131 11870826 14938957 833.096189559391 1013.096189559391 4 7 21 53 863
396	73824 129 11870826 14938957 833.096189559391 1013.096189559391 4 2 6 15 65
vector 492 World.node[267].appl.middleware.ExampleService proof_size ETV
vector 493 World.node[267].appl.middleware.ExampleService proof_requested ETV
467	74104 34 14821433 14821433 1004.094899564842 1004.094899564842 1 11 11 11 121
466	74138 33 14821433 14821433 1004.094899564842 1004.094899564842 1 3 3 3 9
335	74171 189 9723856 14992009 717.01838287916 1017.01838287916 6 8 15 62 676
334	74360 186 9723856 14992009 717.01838287916 1017.01838287916 6 1 4 16 50
vector 494 World.node[262].appl.middleware.ExampleService proof_size ETV
vector 495 World.node[262].appl.middleware.ExampleService proof_requested ETV
vector 496 World.node[260].appl.middleware.ExampleService proof_size ETV
vector 497 World.node[260].appl.middleware.ExampleService proof_requested ETV
435	74848 100 13553982 15293553 921.081017559371 1041.081017559371 3 11 16 42 602
434	74948 97 13553982 15293553 921.081017559371 1041.081017559371 3 2 6 12 56
469	75045 34 14830661 14830661 1005.000256457529 1005.000256457529 1 10 10 10 100
468	75079 33 14830661 14830661 1005.000256457529 1005.000256457529 1 6 6 6 36
451	75112 66 14112051 14979132 956.077281956701 1016.077281956701 2 6 18 24 360
450	75178 65 14112051 14979132 956.077281956701 1016.077281956701 2 0 5 5 25
465	75243 65 14694510 15509592 995.003372296318 1055.003372296318 2 9 9 18 162
464	75308 65 14694510 15509592 995.003372296318 1055.003372296318 2 2 3 5 13
449	75373 66 13866927 14796026 942.092907434213 1002.092907434213 2 6 15 21 261
448	75439 65 13866927 14796026 942.092907434213 1002.092907434213 2 2 3 5 13
vector 498 World.node[265].appl.middleware.ExampleService proof_size ETV
vector 499 World.node[265].appl.middleware.ExampleService proof_requested ETV
vector 500 World.node[268].appl.middleware.ExampleService proof_size ETV
vector 501 World.node[268].appl.middleware.ExampleService proof_requested ETV
vector 502 World.node[270].appl.middleware.ExampleService proof_size ETV
vector 503 World.node[270].appl.middleware.ExampleService proof_requested ETV
483	75957 34 15205376 15205376 1035.090385963768 1035.090385963768 1 10 10 10 100
482	75991 33 15205376 15205376 1035.090385963768 1035.090385963768 1 3 3 3 9
455	76024 99 14159138 15780767 959.045903472579 1076.144753917694 3 3 12 18 162
454	76123 98 14159138 15780767 959.045903472579 1076.144753917694 3 2 6 11 49
491	76221 33 15485557 15485557 1053.184751916825 1053.184751916825 1 2 2 2 4
490	76254 33 15485557 15485557 1053.184751916825 1053.184751916825 1 2 2 2 4
vector 504 World.node[261].appl.middleware.ExampleService proof_size ETV
vector 505 World.node[261].appl.middleware.ExampleService proof_requested ETV
vector 506 World.node[272].appl.middleware.ExampleService proof_size ETV
vector 507 World.node[272].appl.middleware.ExampleService proof_requested ETV
vector 508 World.node[269].appl.middleware.ExampleService proof_size ETV
vector 509 World.node[269].appl.middleware.ExampleService proof_requested ETV
vector 510 World.node[264].appl.middleware.ExampleService proof_size ETV
vector 511 World.node[264].appl.middleware.ExampleService proof_requested ETV
447	76891 98 13866184 15652844 942.065088906463 1065.004718494462 3 1 9 17 131
446	76989 98 13866184 15652844 942.065088906463 1065.004718494462 3 1 5 10 42
vector 512 World.node[266].appl.middleware.ExampleService proof_size ETV
vector 513 World.node[266].appl.middleware.ExampleService proof_requested ETV
vector 514 World.node[273].appl.middleware.ExampleService proof_size ETV
vector 515 World.node[273].appl.middleware.ExampleService proof_requested ETV
445	77389 99 13799251 15555396 938.002142304229 1058.002142304229 3 7 19 39 579
444	77488 97 13799251 15555396 938.002142304229 1058.002142304229 3 0 6 9 45
473	77585 66 14901332 15713842 1010.093026647368 1070.093026647368 2 5 6 11 61
472	77651 66 14901332 15713842 1010.093026647368 1070.093026647368 2 0 2 2 4
453	77717 99 14112642 15779615 956.086551910546 1076.086551910546 3 3 16 28 346
452	77816 98 14112642 15779615 956.086551910546 1076.086551910546 3 0 6 9 45
475	77914 67 14938528 15746390 1013.089556570165 1073.089556570165 2 9 12 21 225
474	77981 66 14938528 15746390 1013.089556570165 1073.089556570165 2 1 5 6 26
vector 516 World.node[275].appl.middleware.ExampleService proof_size ETV
vector 517 World.node[275].appl.middleware.ExampleService proof_requested ETV
vector 518 World.node[277].appl.middleware.ExampleService proof_size ETV
vector 519 World.node[277].appl.middleware.ExampleService proof_requested ETV
463	78349 65 14644887 15464980 992.045657194429 1052.045657194429 2 6 9 15 117
462	78414 65 14644887 15464980 992.045657194429 1052.045657194429 2 2 4 6 20
vector 520 World.node[271].appl.middleware.ExampleService proof_size ETV
vector 521 World.node[271].appl.middleware.ExampleService proof_requested ETV
vector 522 World.node[278].appl.middleware.ExampleService proof_size ETV
vector 523 World.node[278].appl.middleware.ExampleService proof_requested ETV
439	78781 132 13565766 16109313 922.035727025941 1102.035727025941 4 4 17 39 469
438	78913 130 13565766 16109313 922.035727025941 1102.035727025941 4 1 5 12 46
vector 524 World.node[279].appl.middleware.ExampleService proof_size ETV
vector 525 World.node[279].appl.middleware.ExampleService proof_requested ETV
459	79194 98 14337872 15996178 970.079824838038 1093.019457005756 3 1 9 17 131
458	79292 98 14337872 15996178 970.079824838038 1093.019457005756 3 1 4 8 26
509	79390 33 15918141 15918141 1087.025686499383 1087.025686499383 1 7 7 7 49
508	79423 33 15918141 15918141 1087.025686499383 1087.025686499383 1 5 5 5 25
523	79456 34 16341713 16341713 1122.096549815708 1122.096549815708 1 11 11 11 121
522	79490 33 16341713 16341713 1122.096549815708 1122.096549815708 1 2 2 2 4
vector 526 World.node[286].appl.middleware.ExampleService proof_size ETV
vector 527 World.node[286].appl.middleware.ExampleService proof_requested ETV
vector 528 World.node[288].appl.middleware.ExampleService proof_size ETV
vector 529 World.node[288].appl.middleware.ExampleService proof_requested ETV
vector 530 World.node[276].appl.middleware.ExampleService proof_size ETV
vector 531 World.node[276].appl.middleware.ExampleService proof_requested ETV
513	79976 33 15959170 15959170 1090.070911853248 1090.070911853248 1 7 7 7 49
512	80009 33 15959170 15959170 1090.070911853248 1090.070911853248 1 2 2 2 4
vector 532 World.node[289].appl.middleware.ExampleService proof_size ETV
vector 533 World.node[289].appl.middleware.ExampleService proof_requested ETV
457	80193 131 14225606 16660130 963.078706757305 1143.078706757305 4 3 11 27 219
456	80324 130 14225606 16660130 963.078706757305 1143.078706757305 4 1 5 11 39
vector 534 World.node[274].appl.middleware.ExampleService proof_size ETV
vector 535 World.node[274].appl.middleware.ExampleService proof_requested ETV
vector 536 World.node[282].appl.middleware.ExampleService proof_size ETV
vector 537 World.node[282].appl.middleware.ExampleService proof_requested ETV
vector 538 World.node[281].appl.middleware.ExampleService proof_size ETV
vector 539 World.node[281].appl.middleware.ExampleService proof_requested ETV
425	80907 164 13020872 16437024 889.013484711456 1129.013484711456 5 1 16 42 540
424	81071 162 13020872 16437024 889.013484711456 1129.013484711456 5 0 8 18 98
vector 540 World.node[285].appl.middleware.ExampleService proof_size ETV
vector 541 World.node[285].appl.middleware.ExampleService proof_requested ETV
427	81384 165 13364804 16830626 910.125147738914 1153.082461472647 5 1 18 42 552
426	81549 163 13364804 16830626 910.125147738914 1153.082461472647 5 1 5 13 43
vector 542 World.node[283].appl.middleware.ExampleService proof_size ETV
vector 543 World.node[283].appl.middleware.ExampleService proof_requested ETV
vector 544 World.node[290].appl.middleware.ExampleService proof_size ETV
vector 545 World.node[290].appl.middleware.ExampleService proof_requested ETV
vector 546 World.node[280].appl.middleware.ExampleService proof_size ETV
vector 547 World.node[280].appl.middleware.ExampleService proof_requested ETV
501	82165 66 15736480 16530747 1072.067241117919 1135.066873678821 2 1 6 7 37
500	82231 66 15736480 16530747 1072.067241117919 1135.066873678821 2 1 3 4 10
429	82297 164 13396005 16812384 912.009398876759 1152.009398876759 5 7 13 46 444
428	82461 163 13396005 16812384 912.009398876759 1152.009398876759 5 2 5 16 58
535	82624 34 16813669 16813669 1152.047350183059 1152.047350183059 1 12 12 12 144
534	82658 33 16813669 16813669 1152.047350183059 1152.047350183059 1 5 5 5 25
vector 548 World.node[284].appl.middleware.ExampleService proof_size ETV
vector 549 World.node[284].appl.middleware.ExampleService proof_requested ETV
471	82842 100 14873953 16422494 1008.052993744588 1128.052993744588 3 3 11 21 179
470	82942 99 14873953 16422494 1008.052993744588 1128.052993744588 3 1 5 7 27
493	83041 101 15542510 17200404 1057.016266000434 1177.016266000434 3 9 14 34 398
492	83142 99 15542510 17200404 1057.016266000434 1177.016266000434 3 2 7 12 62
507	83241 67 15888327 16691077 1085.023546625068 1145.023546625068 2 3 21 24 450
506	83308 66 15888327 16691077 1085.023546625068 1145.023546625068 2 2 8 10 68
517	83374 67 16161158 17034120 1107.004236796009 1167.004236796009 2 9 16 25 337
516	83441 66 16161158 17034120 1107.004236796009 1167.004236796009 2 3 4 7 25
[...]
1644	285046 102 61127564 64969043 3340.024352423567 3460.024352423567 3 2 7 16 102
1681	285148 69 63085288 64972809 3400.047470584372 3460.047470584372 2 8 17 25 353
1680	285217 68 63085288 64972809 3400.047470584372 3460.047470584372 2 4 6 10 52
vector 1732 World.node[899].appl.middleware.ExampleService proof_size ETV
vector 1733 World.node[899].appl.middleware.ExampleService proof_requested ETV
vector 1734 World.node[912].appl.middleware.ExampleService proof_size ETV
vector 1735 World.node[912].appl.middleware.ExampleService proof_requested ETV
1581	285591 174 57760637 64670066 3209.078322794405 3449.078322794405 5 5 19 79 1395
1580	285765 170 57760637 64670066 3209.078322794405 3449.078322794405 5 1 7 18 88
vector 1736 World.node[913].appl.middleware.ExampleService proof_size ETV
vector 1737 World.node[913].appl.middleware.ExampleService proof_requested ETV
vector 1738 World.node[908].appl.middleware.ExampleService proof_size ETV
vector 1739 World.node[908].appl.middleware.ExampleService proof_requested ETV
1685	286241 69 63196853 65066683 3403.080290548899 3463.080290548899 2 4 11 15 137
1684	286310 68 63196853 65066683 3403.080290548899 3463.080290548899 2 3 4 7 25
1677	286378 68 62859914 64797358 3394.056070618751 3454.056070618751 2 4 8 12 80
1676	286446 68 62859914 64797358 3394.056070618751 3454.056070618751 2 3 5 8 34
1659	286514 104 61708864 65590838 3359.060872230423 3479.060872230423 3 3 21 37 619
1658	286618 102 61708864 65590838 3359.060872230423 3479.060872230423 3 2 5 11 45
1715	286720 34 64690129 64690129 3450.010087156063 3450.010087156063 1 5 5 5 25
1714	286754 34 64690129 64690129 3450.010087156063 3450.010087156063 1 1 1 1 1
1697	286788 69 63813064 65717861 3423.010109529551 3483.010109529551 2 4 25 29 641
1696	286857 68 63813064 65717861 3423.010109529551 3483.010109529551 2 2 8 10 68
1719	286925 34 64850754 64850754 3456.059462728421 3456.059462728421 1 4 4 4 16
1718	286959 34 64850754 64850754 3456.059462728421 3456.059462728421 1 0 0 0 0
vector 1740 World.node[910].appl.middleware.ExampleService proof_size ETV
vector 1741 World.node[910].appl.middleware.ExampleService proof_requested ETV
1639	287146 105 60736592 64617776 3327.052953345352 3447.052953345352 3 14 27 62 1366
1638	287251 102 60736592 64617776 3327.052953345352 3447.052953345352 3 2 6 13 65
1675	287353 69 62607048 64618143 3387.055139176268 3447.055139176268 2 8 10 18 164
1674	287422 68 62607048 64618143 3387.055139176268 3447.055139176268 2 0 6 6 36
vector 1742 World.node[915].appl.middleware.ExampleService proof_size ETV
vector 1743 World.node[915].appl.middleware.ExampleService proof_requested ETV
vector 1744 World.node[911].appl.middleware.ExampleService proof_size ETV
vector 1745 World.node[911].appl.middleware.ExampleService proof_requested ETV
1683	287796 70 63156016 65030355 3402.036643130518 3462.036643130518 2 11 22 33 605
1682	287866 69 63156016 65030355 3402.036643130518 3462.036643130518 2 4 10 14 116
1637	287935 105 60708735 64590117 3326.048661593045 3446.048661593045 3 18 21 58 1126
1636	288040 102 60708735 64590117 3326.048661593045 3446.048661593045 3 2 9 18 134
vector 1746 World.node[914].appl.middleware.ExampleService proof_size ETV
vector 1747 World.node[914].appl.middleware.ExampleService proof_requested ETV
1703	288295 69 64012465 65900937 3428.067096942104 3488.067096942104 2 3 17 20 298
1702	288364 68 64012465 65900937 3428.067096942104 3488.067096942104 2 1 8 9 65
vector 1748 World.node[916].appl.middleware.ExampleService proof_size ETV
vector 1749 World.node[916].appl.middleware.ExampleService proof_requested ETV
1559	288585 209 56961238 65124728 3165.097095879773 3465.097095879773 6 2 20 86 1442
1558	288794 204 56961238 65124728 3165.097095879773 3465.097095879773 6 1 6 18 70
vector 1750 World.node[909].appl.middleware.ExampleService proof_size ETV
vector 1751 World.node[909].appl.middleware.ExampleService proof_requested ETV
1631	289151 139 60362725 66068544 3314.074525292381 3494.074525292381 4 4 22 58 1030
1630	289290 137 60362725 66068544 3314.074525292381 3494.074525292381 4 1 10 19 151
1633	289427 140 60454592 66130053 3317.057457480766 3497.057457480766 4 14 26 76 1528
1632	289567 136 60454592 66130053 3317.057457480766 3497.057457480766 4 3 6 17 77
1597	289703 175 58524360 65762328 3244.069393031322 3484.069393031322 5 13 21 86 1528
1596	289878 170 58524360 65762328 3244.069393031322 3484.069393031322 5 1 8 21 115
1741	290048 34 66040206 66040206 3493.019917345932 3493.019917345932 1 8 8 8 64
1740	290082 34 66040206 66040206 3493.019917345932 3493.019917345932 1 3 3 3 9
vector 1752 World.node[921].appl.middleware.ExampleService proof_size ETV
vector 1753 World.node[921].appl.middleware.ExampleService proof_requested ETV
1455	290269 347 52262998 65654319 2941.132209804491 3481.032209804491 10 1 29 132 2450
1454	290616 340 52262998 65654319 2941.132209804491 3481.032209804491 10 0 7 43 237
1573	290956 209 57507492 66109448 3196.016107916599 3496.016107916599 6 8 30 118 2678
1572	291165 204 57507492 66109448 3196.016107916599 3496.016107916599 6 1 8 21 119
1665	291369 104 61929195 65867699 3367.002276933822 3487.002276933822 3 9 29 54 1178
1664	291473 102 61929195 65867699 3367.002276933822 3487.002276933822 3 0 6 9 45
1679	291575 105 62932759 66520845 3396.037120944983 3516.037120944983 3 11 23 54 1050
1678	291680 102 62932759 66520845 3396.037120944983 3516.037120944983 3 5 9 21 155
1571	291782 209 57494830 66154364 3195.116788603074 3498.090893609799 6 3 16 65 799
1570	291991 204 57494830 66154364 3195.116788603074 3498.090893609799 6 0 8 24 134
vector 1754 World.node[907].appl.middleware.ExampleService proof_size ETV
vector 1755 World.node[907].appl.middleware.ExampleService proof_requested ETV
vector 1756 World.node[923].appl.middleware.ExampleService proof_size ETV
vector 1757 World.node[923].appl.middleware.ExampleService proof_requested ETV
1663	292501 104 61870127 65787935 3365.017936017504 3485.017936017504 3 5 14 31 365
1662	292605 102 61870127 65787935 3365.017936017504 3485.017936017504 3 0 7 14 98
vector 1758 World.node[918].appl.middleware.ExampleService proof_size ETV
vector 1759 World.node[918].appl.middleware.ExampleService proof_requested ETV
vector 1760 World.node[920].appl.middleware.ExampleService proof_size ETV
vector 1761 World.node[920].appl.middleware.ExampleService proof_requested ETV
vector 1762 World.node[922].appl.middleware.ExampleService proof_size ETV
vector 1763 World.node[922].appl.middleware.ExampleService proof_requested ETV
vector 1764 World.node[917].appl.middleware.ExampleService proof_size ETV
vector 1765 World.node[917].appl.middleware.ExampleService proof_requested ETV
vector 1766 World.node[919].appl.middleware.ExampleService proof_size ETV
vector 1767 World.node[919].appl.middleware.ExampleService proof_requested ETV
1755	293472 34 66838240 66838240 3531.016165713104 3531.016165713104 1 4 4 4 16
1754	293506 34 66838240 66838240 3531.016165713104 3531.016165713104 1 3 3 3 9
vector 1768 World.node[927].appl.middleware.ExampleService proof_size ETV
vector 1769 World.node[927].appl.middleware.ExampleService proof_requested ETV
vector 1770 World.node[925].appl.middleware.ExampleService proof_size ETV
vector 1771 World.node[925].appl.middleware.ExampleService proof_requested ETV
vector 1772 World.node[924].appl.middleware.ExampleService proof_size ETV
vector 1773 World.node[924].appl.middleware.ExampleService proof_requested ETV
vector 1774 World.node[931].appl.middleware.ExampleService proof_size ETV
vector 1775 World.node[931].appl.middleware.ExampleService proof_requested ETV
vector 1776 World.node[934].appl.middleware.ExampleService proof_size ETV
vector 1777 World.node[934].appl.middleware.ExampleService proof_requested ETV
1739	294305 69 65819003 67126492 3486.018149088975 3546.018149088975 2 4 14 18 212
1738	294374 68 65819003 67126492 3486.018149088975 3546.018149088975 2 3 3 6 18
1661	294442 138 61791801 67047232 3362.063064307463 3542.063064307463 4 2 15 39 489
1660	294580 136 61791801 67047232 3362.063064307463 3542.063064307463 4 1 5 11 39
vector 1778 World.node[932].appl.middleware.ExampleService proof_size ETV
vector 1779 World.node[932].appl.middleware.ExampleService proof_requested ETV
1689	294869 105 63483176 66865543 3412.091714613978 3532.091714613978 3 13 20 51 893
1688	294974 102 63483176 66865543 3412.091714613978 3532.091714613978 3 2 6 11 49
1699	295076 102 63894596 67048173 3425.01077540738 3542.071140756356 3 1 16 29 401
1698	295178 100 63894596 67048173 3425.01077540738 3542.071140756356 3 1 7 13 75
1713	295278 105 64593228 67602923 3446.074157477636 3566.074157477636 3 17 21 56 1054
1712	295383 102 64593228 67602923 3446.074157477636 3566.074157477636 3 2 5 10 38
1717	295485 68 64794264 66472441 3454.000959250331 3514.000959250331 2 8 8 16 128
1716	295553 68 64794264 66472441 3454.000959250331 3514.000959250331 2 1 1 2 2
1621	295621 175 59500191 66676471 3283.036356843705 3523.036356843705 5 10 19 80 1334
1620	295796 170 59500191 66676471 3283.036356843705 3523.036356843705 5 2 6 15 57
1693	295966 101 63537978 66898374 3414.01837294416 3534.01837294416 3 6 34 54 1388
1692	296067 100 63537978 66898374 3414.01837294416 3534.01837294416 3 1 10 14 110
1735	296167 69 65682350 67044933 3482.004799781065 3542.004799781065 2 6 10 16 136
1734	296236 68 65682350 67044933 3482.004799781065 3542.004799781065 2 0 1 1 1
1707	296304 104 64044171 67193278 3429.050504541653 3549.050504541653 3 5 20 39 621
1706	296408 103 64044171 67193278 3429.050504541653 3549.050504541653 3 1 18 24 350
vector 1780 World.node[938].appl.middleware.ExampleService proof_size ETV
vector 1781 World.node[938].appl.middleware.ExampleService proof_requested ETV
vector 1782 World.node[926].appl.middleware.ExampleService proof_size ETV
vector 1783 World.node[926].appl.middleware.ExampleService proof_requested ETV
vector 1784 World.node[930].appl.middleware.ExampleService proof_size ETV
vector 1785 World.node[930].appl.middleware.ExampleService proof_requested ETV
1565	296970 244 57385406 67192853 3189.038919327757 3549.038919327757 7 4 33 136 3110
1564	297214 238 57385406 67192853 3189.038919327757 3549.038919327757 7 0 8 32 184
1765	297452 34 67168220 67168220 3548.004678037344 3548.004678037344 1 8 8 8 64
1764	297486 34 67168220 67168220 3548.004678037344 3548.004678037344 1 1 1 1 1
vector 1786 World.node[935].appl.middleware.ExampleService proof_size ETV
vector 1787 World.node[935].appl.middleware.ExampleService proof_requested ETV
vector 1788 World.node[937].appl.middleware.ExampleService proof_size ETV
vector 1789 World.node[937].appl.middleware.ExampleService proof_requested ETV
vector 1790 World.node[928].appl.middleware.ExampleService proof_size ETV
vector 1791 World.node[928].appl.middleware.ExampleService proof_requested ETV
1731	297979 68 65425050 66899068 3474.039563001716 3534.039563001716 2 7 7 14 98
1730	298047 68 65425050 66899068 3474.039563001716 3534.039563001716 2 1 5 6 26
vector 1792 World.node[933].appl.middleware.ExampleService proof_size ETV
vector 1793 World.node[933].appl.middleware.ExampleService proof_requested ETV
1577	298268 243 57659485 67480122 3204.040338612115 3561.078263062814 7 2 20 99 1721
1576	298511 238 57659485 67480122 3204.040338612115 3561.078263062814 7 2 6 28 124
vector 1794 World.node[939].appl.middleware.ExampleService proof_size ETV
vector 1795 World.node[939].appl.middleware.ExampleService proof_requested ETV
vector 1796 World.node[936].appl.middleware.ExampleService proof_size ETV
vector 1797 World.node[936].appl.middleware.ExampleService proof_requested ETV
vector 1798 World.node[941].appl.middleware.ExampleService proof_size ETV
vector 1799 World.node[941].appl.middleware.ExampleService proof_requested ETV
1691	299208 138 63518025 68204594 3413.182028823479 3596.049578289711 4 1 12 31 325
1690	299346 136 63518025 68204594 3413.182028823479 3596.049578289711 4 1 4 10 30
1733	299482 103 65658828 68300337 3481.070960302302 3601.070960302302 3 4 11 23 201
1732	299585 102 65658828 68300337 3481.070960302302 3601.070960302302 3 2 5 10 38
1737	299687 103 65769012 68367888 3484.161511730123 3604.061511730123 3 2 10 15 113
1736	299790 102 65769012 68367888 3484.161511730123 3604.061511730123 3 0 4 5 17
1725	299892 103 65251984 68070231 3469.097244746983 3589.097244746983 3 6 16 31 373
1724	299995 102 65251984 68070231 3469.097244746983 3589.097244746983 3 3 5 12 50
vector 1800 World.node[942].appl.middleware.ExampleService proof_size ETV
vector 1801 World.node[942].appl.middleware.ExampleService proof_requested ETV
1783	300250 35 67936904 67936904 3582.031188042019 3582.031188042019 1 16 16 16 256
1782	300285 34 67936904 67936904 3582.031188042019 3582.031188042019 1 5 5 5 25
1627	300319 207 59791105 68169478 3294.058038898651 3594.058038898651 6 7 34 80 1604
1626	300526 204 59791105 68169478 3294.058038898651 3594.058038898651 6 0 9 23 133
1771	300730 69 67405546 68613458 3558.066740797437 3615.076342496893 2 1 10 11 101
1770	300799 68 67405546 68613458 3558.066740797437 3615.076342496893 2 1 2 3 5
1595	300867 244 58423488 68278968 3240.013399918913 3600.013399918913 7 3 22 109 1959
1594	301111 238 58423488 68278968 3240.013399918913 3600.013399918913 7 1 6 22 94
1797	301349 35 68364124 68364124 3604.005229433347 3604.005229433347 1 11 11 11 121
1796	301384 34 68364124 68364124 3604.005229433347 3604.005229433347 1 1 1 1 1
1727	301418 103 65313358 68103679 3471.021504804189 3591.021504804189 3 5 12 25 233
1726	301521 102 65313358 68103679 3471.021504804189 3591.021504804189 3 0 3 5 13
1743	301623 103 66088091 68558598 3495.016235220316 3612.126857951091 3 1 10 17 137
1742	301726 102 66088091 68558598 3495.016235220316 3612.126857951091 3 1 5 7 27
vector 1802 World.node[940].appl.middleware.ExampleService proof_size ETV
vector 1803 World.node[940].appl.middleware.ExampleService proof_requested ETV
1761	301981 70 66994287 68265168 3539.087811037945 3599.087811037945 2 15 24 39 801
1760	302051 68 66994287 68265168 3539.087811037945 3599.087811037945 2 2 5 7 29
vector 1804 World.node[943].appl.middleware.ExampleService proof_size ETV
vector 1805 World.node[943].appl.middleware.ExampleService proof_requested ETV
1757	302272 103 66921199 69162044 3535.091492375894 3655.091492375894 3 6 19 32 446
1756	302375 102 66921199 69162044 3535.091492375894 3655.091492375894 3 2 6 12 56
1793	302477 68 68190076 69130434 3595.070380960777 3652.241012287961 2 4 7 11 65
1792	302545 68 68190076 69130434 3595.070380960777 3652.241012287961 2 3 4 7 25
1751	302613 103 66368899 68888048 3509.087439878394 3632.027077706764 3 1 10 14 110
1750	302716 102 66368899 68888048 3509.087439878394 3632.027077706764 3 1 2 5 9
1623	302818 243 59552352 69056478 3285.098736379272 3645.098736379272 7 5 28 120 2470
1622	303061 238 59552352 69056478 3285.098736379272 3645.098736379272 7 0 6 16 66
1723	303299 140 65066304 69029610 3463.068940109503 3643.068940109503 4 11 17 52 700
1722	303439 136 65066304 69029610 3463.068940109503 3643.068940109503 4 1 8 17 115
1773	303575 102 67449427 69430710 3560.028769174218 3680.028769174218 3 3 9 19 139
1772	303677 102 67449427 69430710 3560.028769174218 3680.028769174218 3 1 4 8 26
1785	303779 68 67991269 69054687 3585.000475143897 3645.000475143897 2 5 6 11 61
1784	303847 68 67991269 69054687 3585.000475143897 3645.000475143897 2 1 2 3 5
1695	303915 174 63565236 69130214 3415.051361033833 3652.211600825919 5 6 25 75 1335
1694	304089 170 63565236 69130214 3415.051361033833 3652.211600825919 5 0 6 19 95
1769	304259 102 67331507 69359917 3555.015611801832 3672.118781816692 3 1 9 16 118
1768	304361 102 67331507 69359917 3555.015611801832 3672.118781816692 3 1 4 8 26
1781	304463 102 67918639 69552606 3581.060905351723 3698.121277217703 3 1 9 19 163
1780	304565 102 67918639 69552606 3581.060905351723 3698.121277217703 3 1 2 4 6
1779	304667 102 67603296 69476303 3566.081964780181 3686.081964780181 3 2 9 19 149
1778	304769 102 67603296 69476303 3566.081964780181 3686.081964780181 3 0 5 7 29
1801	304871 68 68761276 69455086 3623.058735143766 3683.058735143766 2 4 5 9 41
1800	304939 68 68761276 69455086 3623.058735143766 3683.058735143766 2 0 1 1 1
1775	305007 104 67451915 69431778 3560.084401646443 3680.084401646443 3 4 18 33 461
1774	305111 102 67451915 69431778 3560.084401646443 3680.084401646443 3 0 2 3 5
1721	305213 174 65033162 69575210 3462.063382498967 3702.063382498967 5 6 29 79 1531
1720	305387 171 65033162 69575210 3462.063382498967 3702.063382498967 5 2 15 23 241
1729	305558 137 65393054 69138910 3473.075843440648 3653.075843440648 4 3 10 28 226
1728	305695 136 65393054 69138910 3473.075843440648 3653.075843440648 4 0 3 5 13
1805	305831 67 69105054 69616585 3650.01524674797 3710.01524674797 2 5 10 15 125
1804	305898 66 69105054 69616585 3650.01524674797 3710.01524674797 2 2 3 5 13
1787	305964 100 68025713 69601052 3587.01593499484 3707.01593499484 3 4 22 35 581
1786	306064 99 68025713 69601052 3587.01593499484 3707.01593499484 3 0 6 7 37
1759	306163 136 66974873 69635511 3538.013862864091 3715.01423536007 4 1 16 33 387
1758	306299 135 66974873 69635511 3538.013862864091 3715.01423536007 4 1 4 9 27
1687	306434 210 63297561 69597431 3406.081538341031 3706.081538341031 6 13 27 103 1905
1686	306644 204 63297561 69597431 3406.081538341031 3706.081538341031 6 2 8 20 94
1753	306848 136 66610567 69564031 3520.011460869131 3700.011460869131 4 3 9 25 179
1752	306984 136 66610567 69564031 3520.011460869131 3700.011460869131 4 0 1 2 2
1749	307120 171 66311501 69720777 3506.033314267104 3743.089001614618 5 3 14 33 303
1748	307291 170 66311501 69720777 3506.033314267104 3743.089001614618 5 2 5 17 63
1803	307461 103 69028802 69791295 3643.016976020671 3763.016976020671 3 1 17 21 299
1802	307564 102 69028802 69791295 3643.016976020671 3763.016976020671 3 0 5 5 25
1795	307666 102 68299138 69654501 3601.058669710252 3721.058669710252 3 1 3 6 14
1794	307768 102 68299138 69654501 3601.058669710252 3721.058669710252 3 0 1 2 2
1705	307870 209 64042789 69680921 3429.028333629458 3729.028333629458 6 4 22 93 1665
1704	308079 205 64042789 69680921 3429.028333629458 3729.028333629458 6 2 12 32 240
1709	308284 202 64229234 69694543 3434.08567101527 3734.08567101527 6 8 27 86 1514
1708	308486 199 64229234 69694543 3434.08567101527 3734.08567101527 6 0 10 25 177
1745	308685 208 66110106 69843647 3496.026700135926 3796.026700135926 6 5 18 68 902
1744	308893 204 66110106 69843647 3496.026700135926 3796.026700135926 6 0 5 7 29
1789	309097 103 68083731 69616814 3590.028883720865 3710.028883720865 3 2 12 22 212
1788	309200 102 68083731 69616814 3590.028883720865 3710.028883720865 3 1 3 7 19
1701	309302 243 63980328 69827613 3427.062617592537 3784.088998567531 7 1 31 101 2205
1700	309545 240 63980328 69827613 3427.062617592537 3784.088998567531 7 0 13 33 313
1791	309785 173 68106382 69868825 3591.060344295274 3831.060344295274 5 2 18 51 689
1790	309958 170 68106382 69868825 3591.060344295274 3831.060344295274 5 0 3 6 14
1777	310128 206 67479568 69891102 3561.070866546035 3858.134834301537 6 2 24 53 833
1776	310334 205 67479568 69891102 3561.070866546035 3858.134834301537 6 0 10 18 124
1711	310539 237 64416330 69892177 3440.07200898258 3860.07200898258 7 2 24 97 1733
1710	310776 232 64416330 69892177 3440.07200898258 3860.07200898258 7 0 5 21 83
1747	311008 242 66258517 69892271 3503.097973550227 3860.158343598734 7 1 22 74 1296
1746	311250 238 66258517 69892271 3503.097973550227 3860.158343598734 7 0 5 11 43
1767	311488 207 67264571 69884294 3552.026942792558 3849.087309298655 6 1 19 62 892
1766	311695 204 67264571 69884294 3552.026942792558 3849.087309298655 6 0 5 13 51
1763	311899 206 67089884 69877415 3544.075844996818 3841.134834979058 6 3 15 52 544
1762	312105 204 67089884 69877415 3544.075844996818 3841.134834979058 6 1 5 14 44
1799	312309 172 68511445 69882749 3610.074725900451 3847.132118566754 5 3 22 50 710
1798	312481 170 68511445 69882749 3610.074725900451 3847.132118566754 5 1 7 18 84

