version 2
run Obstacles-0-20191117-12:13:26-19092
attr configname Obstacles
attr datetime 20191117-12:13:26
attr experiment Obstacles
attr inifile omnetpp.ini
attr iterationvars $0=0
attr iterationvarsf 0-
attr measurement $0=0
attr network artery.veins.World
attr processid 19092
attr repetition 0
attr replication #0
attr resultdir results
attr runnumber 0
attr seedset 0
param *.traci.launcher.sumocfg "\"Obstacles/run.sumo.cfg\""
param *.withObstacles true
param *.obstacles.obstacles "xmldoc(\"config_obstacles.xml\", \"//AnalogueModel[@type='SimpleObstacleShadowing']/obstacles\")"
param *.node[*].nic.mac1609_4.txPower 20mW
param *.node[*].nic.phy80211p.decider "xmldoc(\"config_obstacles.xml\")"
param *.node[*].nic.phy80211p.analogueModels "xmldoc(\"config_obstacles.xml\")"
param *.node[*].applType "\"artery.veins.ApplicationLayer\""
param *.node[*].appl.middleware.updateInterval 0.1s
param *.node[*].appl.middleware.datetime "\"2013-06-01 12:35:00\""
param *.node[*].appl.middleware.services "xmldoc(\"services.xml\")"
param *.node[*].appl.middleware.ExampleService.DecisionLogic 0
param *.node[*].appl.middleware.ExampleService.NeighboringWindow 60
param *.traci.core.version -1
param *.traci.launcher.typename "\"PosixLauncher\""
param *.playgroundSizeX 4000m
param *.playgroundSizeY 4000m
param *.playgroundSizeZ 50m
param *.connectionManager.maxInterfDist 1500m
param *.connectionManager.sendDirect true
param *.connectionManager.coreDebug false

vector 0 World.node[3].appl.middleware.ExampleService proof_size ETV
vector 1 World.node[3].appl.middleware.ExampleService proof_requested ETV
1	6752	25.123870982329	1
0	6752	25.123870982329	1
vector 2 World.node[11].appl.middleware.ExampleService proof_size ETV
vector 3 World.node[11].appl.middleware.ExampleService proof_requested ETV
vector 4 World.node[12].appl.middleware.ExampleService proof_size ETV
vector 5 World.node[12].appl.middleware.ExampleService proof_requested ETV
vector 6 World.node[0].appl.middleware.ExampleService proof_size ETV
vector 7 World.node[0].appl.middleware.ExampleService proof_requested ETV
vector 8 World.node[1].appl.middleware.ExampleService proof_size ETV
vector 9 World.node[1].appl.middleware.ExampleService proof_requested ETV
vector 10 World.node[8].appl.middleware.ExampleService proof_size ETV
vector 11 World.node[8].appl.middleware.ExampleService proof_requested ETV
vector 12 World.node[5].appl.middleware.ExampleService proof_size ETV
vector 13 World.node[5].appl.middleware.ExampleService proof_requested ETV
vector 14 World.node[16].appl.middleware.ExampleService proof_size ETV
vector 15 World.node[16].appl.middleware.ExampleService proof_requested ETV
vector 16 World.node[15].appl.middleware.ExampleService proof_size ETV
vector 17 World.node[15].appl.middleware.ExampleService proof_requested ETV
vector 18 World.node[13].appl.middleware.ExampleService proof_size ETV
vector 19 World.node[13].appl.middleware.ExampleService proof_requested ETV
vector 20 World.node[19].appl.middleware.ExampleService proof_size ETV
vector 21 World.node[19].appl.middleware.ExampleService proof_requested ETV
vector 22 World.node[10].appl.middleware.ExampleService proof_size ETV
vector 23 World.node[10].appl.middleware.ExampleService proof_requested ETV
vector 24 World.node[14].appl.middleware.ExampleService proof_size ETV
vector 25 World.node[14].appl.middleware.ExampleService proof_requested ETV
vector 26 World.node[4].appl.middleware.ExampleService proof_size ETV
vector 27 World.node[4].appl.middleware.ExampleService proof_requested ETV
vector 28 World.node[6].appl.middleware.ExampleService proof_size ETV
vector 29 World.node[6].appl.middleware.ExampleService proof_requested ETV
7	36923	51.068642886034	2
6	36923	51.068642886034	2
vector 30 World.node[18].appl.middleware.ExampleService proof_size ETV
vector 31 World.node[18].appl.middleware.ExampleService proof_requested ETV
9	37886	51.220385223693	2
8	37886	51.220385223693	2
vector 32 World.node[26].appl.middleware.ExampleService proof_size ETV
vector 33 World.node[26].appl.middleware.ExampleService proof_requested ETV
vector 34 World.node[20].appl.middleware.ExampleService proof_size ETV
vector 35 World.node[20].appl.middleware.ExampleService proof_requested ETV
vector 36 World.node[25].appl.middleware.ExampleService proof_size ETV
vector 37 World.node[25].appl.middleware.ExampleService proof_requested ETV
vector 38 World.node[22].appl.middleware.ExampleService proof_size ETV
vector 39 World.node[22].appl.middleware.ExampleService proof_requested ETV
vector 40 World.node[24].appl.middleware.ExampleService proof_size ETV
vector 41 World.node[24].appl.middleware.ExampleService proof_requested ETV
vector 42 World.node[28].appl.middleware.ExampleService proof_size ETV
vector 43 World.node[28].appl.middleware.ExampleService proof_requested ETV
vector 44 World.node[17].appl.middleware.ExampleService proof_size ETV
vector 45 World.node[17].appl.middleware.ExampleService proof_requested ETV
vector 46 World.node[23].appl.middleware.ExampleService proof_size ETV
vector 47 World.node[23].appl.middleware.ExampleService proof_requested ETV
vector 48 World.node[29].appl.middleware.ExampleService proof_size ETV
vector 49 World.node[29].appl.middleware.ExampleService proof_requested ETV
vector 50 World.node[7].appl.middleware.ExampleService proof_size ETV
vector 51 World.node[7].appl.middleware.ExampleService proof_requested ETV
29	204445	103.008529556706	1
28	204445	103.008529556706	0
21	162412	94.009973275778	6
20	162412	94.009973275778	1
39	388878	132.002488656738	7
38	388878	132.002488656738	1
vector 52 World.node[33].appl.middleware.ExampleService proof_size ETV
vector 53 World.node[33].appl.middleware.ExampleService proof_requested ETV
vector 54 World.node[27].appl.middleware.ExampleService proof_size ETV
vector 55 World.node[27].appl.middleware.ExampleService proof_requested ETV
vector 56 World.node[30].appl.middleware.ExampleService proof_size ETV
vector 57 World.node[30].appl.middleware.ExampleService proof_requested ETV
vector 58 World.node[36].appl.middleware.ExampleService proof_size ETV
vector 59 World.node[36].appl.middleware.ExampleService proof_requested ETV
19	133583	87.015939371008	6
19	529707	147.015939371008	9
18	133583	87.015939371008	2
18	529707	147.015939371008	3
vector 60 World.node[38].appl.middleware.ExampleService proof_size ETV
vector 61 World.node[38].appl.middleware.ExampleService proof_requested ETV
11	72821	67.051001685322	2
11	350184	127.051001685322	11
10	72821	67.051001685322	1
10	350184	127.051001685322	2
vector 62 World.node[32].appl.middleware.ExampleService proof_size ETV
vector 63 World.node[32].appl.middleware.ExampleService proof_requested ETV
vector 64 World.node[35].appl.middleware.ExampleService proof_size ETV
vector 65 World.node[35].appl.middleware.ExampleService proof_requested ETV
vector 66 World.node[31].appl.middleware.ExampleService proof_size ETV
vector 67 World.node[31].appl.middleware.ExampleService proof_requested ETV
65	737794	169.087869163183	2
64	737794	169.087869163183	1
17	122606	84.041693394911	4
17	500114	144.041693394911	9
16	122606	84.041693394911	0
16	500114	144.041693394911	4
15	89072	74.110445192224	1
15	433012	137.050082818582	10
14	89072	74.110445192224	1
14	433012	137.050082818582	2
vector 68 World.node[34].appl.middleware.ExampleService proof_size ETV
vector 69 World.node[34].appl.middleware.ExampleService proof_requested ETV
25	167445	95.077487978176	5
25	579239	152.221799224293	7
24	167445	95.077487978176	1
24	579239	152.221799224293	7
vector 70 World.node[37].appl.middleware.ExampleService proof_size ETV
vector 71 World.node[37].appl.middleware.ExampleService proof_requested ETV
23	162563	94.01843625973	5
23	596479	154.01843625973	13
22	162563	94.01843625973	1
22	596479	154.01843625973	2
vector 72 World.node[47].appl.middleware.ExampleService proof_size ETV
vector 73 World.node[47].appl.middleware.ExampleService proof_requested ETV
vector 74 World.node[48].appl.middleware.ExampleService proof_size ETV
vector 75 World.node[48].appl.middleware.ExampleService proof_requested ETV
vector 76 World.node[43].appl.middleware.ExampleService proof_size ETV
vector 77 World.node[43].appl.middleware.ExampleService proof_requested ETV
51	489382	143.060647546221	4
50	489382	143.060647546221	1
vector 78 World.node[39].appl.middleware.ExampleService proof_size ETV
vector 79 World.node[39].appl.middleware.ExampleService proof_requested ETV
57	605421	155.095502159907	8
56	605421	155.095502159907	6
vector 80 World.node[42].appl.middleware.ExampleService proof_size ETV
vector 81 World.node[42].appl.middleware.ExampleService proof_requested ETV
vector 82 World.node[49].appl.middleware.ExampleService proof_size ETV
vector 83 World.node[49].appl.middleware.ExampleService proof_requested ETV
vector 84 World.node[44].appl.middleware.ExampleService proof_size ETV
vector 85 World.node[44].appl.middleware.ExampleService proof_requested ETV
vector 86 World.node[51].appl.middleware.ExampleService proof_size ETV
vector 87 World.node[51].appl.middleware.ExampleService proof_requested ETV
vector 88 World.node[46].appl.middleware.ExampleService proof_size ETV
vector 89 World.node[46].appl.middleware.ExampleService proof_requested ETV
vector 90 World.node[50].appl.middleware.ExampleService proof_size ETV
vector 91 World.node[50].appl.middleware.ExampleService proof_requested ETV
vector 92 World.node[41].appl.middleware.ExampleService proof_size ETV
vector 93 World.node[41].appl.middleware.ExampleService proof_requested ETV
55	587350	153.074771334021	8
55	1189704	210.178351053927	3
54	587350	153.074771334021	4
54	1189704	210.178351053927	3
53	575792	152.05338426407	10
53	1206441	212.05338426407	7
52	575792	152.05338426407	4
52	1206441	212.05338426407	4
vector 94 World.node[45].appl.middleware.ExampleService proof_size ETV
vector 95 World.node[45].appl.middleware.ExampleService proof_requested ETV
vector 96 World.node[54].appl.middleware.ExampleService proof_size ETV
vector 97 World.node[54].appl.middleware.ExampleService proof_requested ETV
67	827409	179.087447440322	12
66	827409	179.087447440322	2
41	390290	132.083528320165	5
41	982147	192.083528320165	4
40	390290	132.083528320165	3
40	982147	192.083528320165	2
5	33251	49.090116217453	4
5	240327	109.090116217453	7
5	737882	169.090116217453	9
5	1437192	229.090116217453	6
4	33251	49.090116217453	1
4	240327	109.090116217453	1
4	737882	169.090116217453	2
4	1437192	229.090116217453	1
vector 98 World.node[56].appl.middleware.ExampleService proof_size ETV
vector 99 World.node[56].appl.middleware.ExampleService proof_requested ETV
33	250501	111.086780594769	1
33	782348	174.064370253053	12
33	1507941	234.064370253053	6
32	250501	111.086780594769	1
32	782348	174.064370253053	0
32	1507941	234.064370253053	3
61	626530	157.111113214873	2
61	1312186	220.082545418665	5
60	626530	157.111113214873	2
60	1312186	220.082545418665	3
vector 100 World.node[62].appl.middleware.ExampleService proof_size ETV
vector 101 World.node[62].appl.middleware.ExampleService proof_requested ETV
vector 102 World.node[52].appl.middleware.ExampleService proof_size ETV
vector 103 World.node[52].appl.middleware.ExampleService proof_requested ETV
vector 104 World.node[57].appl.middleware.ExampleService proof_size ETV
vector 105 World.node[57].appl.middleware.ExampleService proof_requested ETV
vector 106 World.node[66].appl.middleware.ExampleService proof_size ETV
vector 107 World.node[66].appl.middleware.ExampleService proof_requested ETV
97	1508972	234.085157320509	9
96	1508972	234.085157320509	3
vector 108 World.node[58].appl.middleware.ExampleService proof_size ETV
vector 109 World.node[58].appl.middleware.ExampleService proof_requested ETV
35	271375	115.08614762004	2
35	792537	175.08614762004	10
35	1523869	235.08614762004	14
34	271375	115.08614762004	0
34	792537	175.08614762004	3
34	1523869	235.08614762004	8
vector 110 World.node[55].appl.middleware.ExampleService proof_size ETV
vector 111 World.node[55].appl.middleware.ExampleService proof_requested ETV
27	178042	97.144912183922	4
27	650815	160.029614019929	8
27	1311144	220.029614019929	10
26	178042	97.144912183922	4
26	650815	160.029614019929	6
26	1311144	220.029614019929	4
59	613862	156.029450155259	5
59	1255578	216.029450155259	14
58	613862	156.029450155259	2
58	1255578	216.029450155259	4
37	355980	128.026674293354	5
37	933592	188.026674293354	11
37	1695859	248.026674293354	15
36	355980	128.026674293354	1
36	933592	188.026674293354	0
36	1695859	248.026674293354	2
3	23600	43.144913857348	1
3	222115	106.079187956546	7
3	707524	166.079187956546	7
3	1391696	226.079187956546	8
2	23600	43.144913857348	1
2	222115	106.079187956546	6
2	707524	166.079187956546	1
2	1391696	226.079187956546	1
31	227159	107.017763228761	4
31	715377	167.017763228761	9
31	1402163	227.017763228761	10
30	227159	107.017763228761	3
30	715377	167.017763228761	2
30	1402163	227.017763228761	5
vector 112 World.node[59].appl.middleware.ExampleService proof_size ETV
vector 113 World.node[59].appl.middleware.ExampleService proof_requested ETV
vector 114 World.node[64].appl.middleware.ExampleService proof_size ETV
vector 115 World.node[64].appl.middleware.ExampleService proof_requested ETV
43	424481	136.045007345057	4
43	1026451	196.045007345057	11
43	1810518	256.045007345057	16
42	424481	136.045007345057	1
42	1026451	196.045007345057	4
42	1810518	256.045007345057	7
99	1629294	243.054702930106	9
98	1629294	243.054702930106	2
13	74932	68.150230937639	2
13	381817	131.08480082273	6
13	969785	191.08480082273	8
13	1739138	251.08480082273	5
12	74932	68.150230937639	2
12	381817	131.08480082273	1
12	969785	191.08480082273	5
12	1739138	251.08480082273	2
vector 116 World.node[72].appl.middleware.ExampleService proof_size ETV
vector 117 World.node[72].appl.middleware.ExampleService proof_requested ETV
vector 118 World.node[60].appl.middleware.ExampleService proof_size ETV
vector 119 World.node[60].appl.middleware.ExampleService proof_requested ETV
vector 120 World.node[61].appl.middleware.ExampleService proof_size ETV
vector 121 World.node[61].appl.middleware.ExampleService proof_requested ETV
vector 122 World.node[73].appl.middleware.ExampleService proof_size ETV
vector 123 World.node[73].appl.middleware.ExampleService proof_requested ETV
79	1152172	207.01824044669	7
79	1958425	267.01824044669	12
78	1152172	207.01824044669	4
78	1958425	267.01824044669	2
vector 124 World.node[65].appl.middleware.ExampleService proof_size ETV
vector 125 World.node[65].appl.middleware.ExampleService proof_requested ETV
vector 126 World.node[78].appl.middleware.ExampleService proof_size ETV
vector 127 World.node[78].appl.middleware.ExampleService proof_requested ETV
vector 128 World.node[69].appl.middleware.ExampleService proof_size ETV
vector 129 World.node[69].appl.middleware.ExampleService proof_requested ETV
vector 130 World.node[70].appl.middleware.ExampleService proof_size ETV
vector 131 World.node[70].appl.middleware.ExampleService proof_requested ETV
105	1909482	263.094728461397	14
105	2722257	323.094728461397	13
104	1909482	263.094728461397	3
104	2722257	323.094728461397	1
vector 132 World.node[74].appl.middleware.ExampleService proof_size ETV
vector 133 World.node[74].appl.middleware.ExampleService proof_requested ETV
63	736776	169.068220134149	7
63	1436037	229.068220134149	6
63	2261116	289.068220134149	5
62	736776	169.068220134149	0
62	1436037	229.068220134149	3
62	2261116	289.068220134149	1
vector 134 World.node[71].appl.middleware.ExampleService proof_size ETV
vector 135 World.node[71].appl.middleware.ExampleService proof_requested ETV
vector 136 World.node[75].appl.middleware.ExampleService proof_size ETV
vector 137 World.node[75].appl.middleware.ExampleService proof_requested ETV
vector 138 World.node[79].appl.middleware.ExampleService proof_size ETV
vector 139 World.node[79].appl.middleware.ExampleService proof_requested ETV
vector 140 World.node[77].appl.middleware.ExampleService proof_size ETV
vector 141 World.node[77].appl.middleware.ExampleService proof_requested ETV
139	3000032	339.020931382151	6
138	3000032	339.020931382151	2
vector 142 World.node[76].appl.middleware.ExampleService proof_size ETV
vector 143 World.node[76].appl.middleware.ExampleService proof_requested ETV
47	452937	139.017063442827	4
47	1062254	199.017063442827	8
47	1854380	259.017063442827	13
47	2616048	316.095213524765	1
46	452937	139.017063442827	1
46	1062254	199.017063442827	5
46	1854380	259.017063442827	2
46	2616048	316.095213524765	1
103	1808098	256.008746318682	11
103	2613072	316.008746318682	9
102	1808098	256.008746318682	4
102	2613072	316.008746318682	5
vector 144 World.node[80].appl.middleware.ExampleService proof_size ETV
vector 145 World.node[80].appl.middleware.ExampleService proof_requested ETV
71	1013037	195.000076873251	13
71	1794349	255.000076873251	5
71	2597212	315.000076873251	6
70	1013037	195.000076873251	5
70	1794349	255.000076873251	2
70	2597212	315.000076873251	2
77	1107985	203.080946575291	11
77	1908800	263.080946575291	12
77	2721508	323.080946575291	7
76	1107985	203.080946575291	5
76	1908800	263.080946575291	2
76	2721508	323.080946575291	2
vector 146 World.node[87].appl.middleware.ExampleService proof_size ETV
vector 147 World.node[87].appl.middleware.ExampleService proof_requested ETV
109	2024054	272.035097026429	14
109	2816978	329.077175786672	1
108	2024054	272.035097026429	3
108	2816978	329.077175786672	1
45	428462	136.230198401389	7
45	1063336	199.062537817797	13
45	1855516	259.062537817797	11
45	2662481	319.062537817797	11
44	428462	136.230198401389	7
44	1063336	199.062537817797	2
44	1855516	259.062537817797	9
44	2662481	319.062537817797	3
113	2188542	283.01274396521	2
113	3073917	343.01274396521	13
112	2188542	283.01274396521	1
112	3073917	343.01274396521	4
73	1049695	198.021098246844	4
73	1839455	258.021098246844	7
73	2643956	318.021098246844	11
72	1049695	198.021098246844	1
72	1839455	258.021098246844	2
72	2643956	318.021098246844	3
vector 148 World.node[84].appl.middleware.ExampleService proof_size ETV
vector 149 World.node[84].appl.middleware.ExampleService proof_requested ETV
83	1221130	213.098194917152	3
83	2045833	273.098194917152	14
83	2889634	333.098194917152	9
82	1221130	213.098194917152	1
82	2045833	273.098194917152	3
82	2889634	333.098194917152	3
vector 150 World.node[82].appl.middleware.ExampleService proof_size ETV
vector 151 World.node[82].appl.middleware.ExampleService proof_requested ETV
vector 152 World.node[92].appl.middleware.ExampleService proof_size ETV
vector 153 World.node[92].appl.middleware.ExampleService proof_requested ETV
111	2042988	273.035597590543	10
111	2887310	333.035597590543	15
110	2042988	273.035597590543	1
110	2887310	333.035597590543	7
vector 154 World.node[91].appl.middleware.ExampleService proof_size ETV
vector 155 World.node[91].appl.middleware.ExampleService proof_requested ETV
vector 156 World.node[81].appl.middleware.ExampleService proof_size ETV
vector 157 World.node[81].appl.middleware.ExampleService proof_requested ETV
vector 158 World.node[85].appl.middleware.ExampleService proof_size ETV
vector 159 World.node[85].appl.middleware.ExampleService proof_requested ETV
93	1363168	224.092297886009	7
93	2200373	284.092297886009	6
93	3091901	344.092297886009	9
92	1363168	224.092297886009	2
92	2200373	284.092297886009	0
92	3091901	344.092297886009	1
vector 160 World.node[94].appl.middleware.ExampleService proof_size ETV
vector 161 World.node[94].appl.middleware.ExampleService proof_requested ETV
69	969313	191.078157270281	14
69	1738889	251.078157270281	11
69	2541553	311.078157270281	12
69	3539931	371.078157270281	10
68	969313	191.078157270281	4
68	1738889	251.078157270281	5
68	2541553	311.078157270281	4
68	3539931	371.078157270281	2
119	2476299	306.086072445079	12
119	3447604	366.086072445079	3
118	2476299	306.086072445079	3
118	3447604	366.086072445079	0
81	1198209	211.070852248999	4
81	2011514	271.070852248999	15
81	2855180	331.070852248999	7
80	1198209	211.070852248999	2
80	2011514	271.070852248999	1
80	2855180	331.070852248999	4
vector 162 World.node[83].appl.middleware.ExampleService proof_size ETV
vector 163 World.node[83].appl.middleware.ExampleService proof_requested ETV
vector 164 World.node[96].appl.middleware.ExampleService proof_size ETV
vector 165 World.node[96].appl.middleware.ExampleService proof_requested ETV
vector 166 World.node[88].appl.middleware.ExampleService proof_size ETV
vector 167 World.node[88].appl.middleware.ExampleService proof_requested ETV
117	2412065	301.054333059047	2
117	3357330	361.054333059047	19
116	2412065	301.054333059047	1
116	3357330	361.054333059047	3
49	454158	139.077822771645	10
49	1063574	199.077822771645	5
49	1855746	259.077822771645	11
49	3689846	379.077822771645	3
48	454158	139.077822771645	4
48	1063574	199.077822771645	1
48	1855746	259.077822771645	3
48	3689846	379.077822771645	1
vector 168 World.node[100].appl.middleware.ExampleService proof_size ETV
vector 169 World.node[100].appl.middleware.ExampleService proof_requested ETV
vector 170 World.node[90].appl.middleware.ExampleService proof_size ETV
vector 171 World.node[90].appl.middleware.ExampleService proof_requested ETV
vector 172 World.node[99].appl.middleware.ExampleService proof_size ETV
vector 173 World.node[99].appl.middleware.ExampleService proof_requested ETV
vector 174 World.node[101].appl.middleware.ExampleService proof_size ETV
vector 175 World.node[101].appl.middleware.ExampleService proof_requested ETV
89	1297920	219.044504904351	10
89	2135989	279.044504904351	9
89	3001059	339.044504904351	11
89	4082074	399.044504904351	11
88	1297920	219.044504904351	6
88	2135989	279.044504904351	3
88	3001059	339.044504904351	5
88	4082074	399.044504904351	1
vector 176 World.node[103].appl.middleware.ExampleService proof_size ETV
vector 177 World.node[103].appl.middleware.ExampleService proof_requested ETV
vector 178 World.node[104].appl.middleware.ExampleService proof_size ETV
vector 179 World.node[104].appl.middleware.ExampleService proof_requested ETV
vector 180 World.node[89].appl.middleware.ExampleService proof_size ETV
vector 181 World.node[89].appl.middleware.ExampleService proof_requested ETV
vector 182 World.node[95].appl.middleware.ExampleService proof_size ETV
vector 183 World.node[95].appl.middleware.ExampleService proof_requested ETV
87	1271460	217.030190451094	6
87	2108512	277.030190451094	6
87	2963360	337.030190451094	11
87	4042241	397.030190451094	11
86	1271460	217.030190451094	2
86	2108512	277.030190451094	5
86	2963360	337.030190451094	3
86	4042241	397.030190451094	3
157	3592520	374.053910508822	3
156	3592520	374.053910508822	0
vector 184 World.node[106].appl.middleware.ExampleService proof_size ETV
vector 185 World.node[106].appl.middleware.ExampleService proof_requested ETV
vector 186 World.node[86].appl.middleware.ExampleService proof_size ETV
vector 187 World.node[86].appl.middleware.ExampleService proof_requested ETV
127	2769702	326.149085905278	1
127	3875442	389.09326949555	13
126	2769702	326.149085905278	1
126	3875442	389.09326949555	4
vector 188 World.node[105].appl.middleware.ExampleService proof_size ETV
vector 189 World.node[105].appl.middleware.ExampleService proof_requested ETV
vector 190 World.node[93].appl.middleware.ExampleService proof_size ETV
vector 191 World.node[93].appl.middleware.ExampleService proof_requested ETV
vector 192 World.node[97].appl.middleware.ExampleService proof_size ETV
vector 193 World.node[97].appl.middleware.ExampleService proof_requested ETV
85	1243814	215.089723333903	9
85	2078653	275.089723333903	20
85	2925017	335.089723333903	10
85	3996838	395.089723333903	5
84	1243814	215.089723333903	3
84	2078653	275.089723333903	8
84	2925017	335.089723333903	1
84	3996838	395.089723333903	3
125	2693239	321.097002577758	10
125	3729046	381.097002577758	6
124	2693239	321.097002577758	2
124	3729046	381.097002577758	4
vector 194 World.node[98].appl.middleware.ExampleService proof_size ETV
vector 195 World.node[98].appl.middleware.ExampleService proof_requested ETV
vector 196 World.node[102].appl.middleware.ExampleService proof_size ETV
vector 197 World.node[102].appl.middleware.ExampleService proof_requested ETV
vector 198 World.node[108].appl.middleware.ExampleService proof_size ETV
vector 199 World.node[108].appl.middleware.ExampleService proof_requested ETV
vector 200 World.node[110].appl.middleware.ExampleService proof_size ETV
vector 201 World.node[110].appl.middleware.ExampleService proof_requested ETV
107	1947309	266.05962544498	16
107	2767534	326.05962544498	12
107	3816579	386.05962544498	9
106	1947309	266.05962544498	4
106	2767534	326.05962544498	3
106	3816579	386.05962544498	2
vector 202 World.node[111].appl.middleware.ExampleService proof_size ETV
vector 203 World.node[111].appl.middleware.ExampleService proof_requested ETV
121	2516956	309.095888865273	5
121	3506418	369.095888865273	10
121	4684645	429.095888865273	12
120	2516956	309.095888865273	0
120	3506418	369.095888865273	3
120	4684645	429.095888865273	4
133	2925019	335.090926780971	1
133	3996840	395.090926780971	18
132	2925019	335.090926780971	0
132	3996840	395.090926780971	5
vector 204 World.node[112].appl.middleware.ExampleService proof_size ETV
vector 205 World.node[112].appl.middleware.ExampleService proof_requested ETV
vector 206 World.node[113].appl.middleware.ExampleService proof_size ETV
vector 207 World.node[113].appl.middleware.ExampleService proof_requested ETV
179	4250909	408.015528589371	8
178	4250909	408.015528589371	3
143	3060347	342.103567782974	1
143	4190079	405.043208746659	10
142	3060347	342.103567782974	1
142	4190079	405.043208746659	2
137	2979068	338.009754053992	10
137	4059486	398.009754053992	16
137	5298014	455.117766468282	3
136	2979068	338.009754053992	4
136	4059486	398.009754053992	9
136	5298014	455.117766468282	3
115	2199689	284.073194085574	8
115	3090735	344.073194085574	16
115	4172237	404.073194085574	11
114	2199689	284.073194085574	2
114	3090735	344.073194085574	4
114	4172237	404.073194085574	4
135	2978789	338.007594530191	9
135	4059483	398.007594530191	15
135	5371453	458.007594530191	16
134	2978789	338.007594530191	7
134	4059483	398.007594530191	5
134	5371453	458.007594530191	6
vector 208 World.node[117].appl.middleware.ExampleService proof_size ETV
vector 209 World.node[117].appl.middleware.ExampleService proof_requested ETV
159	3615135	375.107513614287	1
159	4890268	438.047145077027	15
158	3615135	375.107513614287	1
158	4890268	438.047145077027	6
vector 210 World.node[120].appl.middleware.ExampleService proof_size ETV
vector 211 World.node[120].appl.middleware.ExampleService proof_requested ETV
129	2837878	330.074023129535	10
129	3894793	390.074023129535	5
129	5164854	450.074023129535	9
128	2837878	330.074023129535	5
128	3894793	390.074023129535	1
128	5164854	450.074023129535	2
vector 212 World.node[116].appl.middleware.ExampleService proof_size ETV
vector 213 World.node[116].appl.middleware.ExampleService proof_requested ETV
vector 214 World.node[107].appl.middleware.ExampleService proof_size ETV
vector 215 World.node[107].appl.middleware.ExampleService proof_requested ETV
75	1051176	198.07961660843	2
75	1882389	261.006189377094	15
75	2689843	321.006189377094	8
75	3724334	381.006189377094	11
75	4892278	438.084409795126	2
74	1051176	198.07961660843	2
74	1882389	261.006189377094	4
74	2689843	321.006189377094	1
74	3724334	381.006189377094	6
74	4892278	438.084409795126	2
163	3871828	389.010805510147	19
163	5136900	449.010805510147	16
162	3871828	389.010805510147	4
162	5136900	449.010805510147	7
161	3704121	380.014796608686	10
161	4930408	440.014796608686	4
160	3704121	380.014796608686	5
160	4930408	440.014796608686	0
vector 216 World.node[115].appl.middleware.ExampleService proof_size ETV
vector 217 World.node[115].appl.middleware.ExampleService proof_requested ETV
vector 218 World.node[109].appl.middleware.ExampleService proof_size ETV
vector 219 World.node[109].appl.middleware.ExampleService proof_requested ETV
vector 220 World.node[118].appl.middleware.ExampleService proof_size ETV
vector 221 World.node[118].appl.middleware.ExampleService proof_requested ETV
vector 222 World.node[125].appl.middleware.ExampleService proof_size ETV
vector 223 World.node[125].appl.middleware.ExampleService proof_requested ETV
177	4233514	407.076872115233	6
177	5593841	467.076872115233	10
176	4233514	407.076872115233	3
176	5593841	467.076872115233	5
189	4593738	425.037910805829	8
189	5956673	485.037910805829	4
188	4593738	425.037910805829	1
188	5956673	485.037910805829	1
203	5119841	448.080856595491	13
202	5119841	448.080856595491	5
vector 224 World.node[123].appl.middleware.ExampleService proof_size ETV
vector 225 World.node[123].appl.middleware.ExampleService proof_requested ETV
91	1310299	220.01295393093	6
91	2149370	280.01295393093	10
91	3018225	340.01295393093	10
91	4098445	400.01295393093	8
91	5425488	460.01295393093	10
90	1310299	220.01295393093	3
90	2149370	280.01295393093	5
90	3018225	340.01295393093	2
90	4098445	400.01295393093	2
90	5425488	460.01295393093	1
199	4932435	440.07300807992	7
198	4932435	440.07300807992	2
vector 226 World.node[114].appl.middleware.ExampleService proof_size ETV
vector 227 World.node[114].appl.middleware.ExampleService proof_requested ETV
147	3243702	353.087409837544	10
147	4353593	413.087409837544	10
147	5724909	473.087409837544	12
146	3243702	353.087409837544	2
146	4353593	413.087409837544	1
146	5724909	473.087409837544	4
vector 228 World.node[122].appl.middleware.ExampleService proof_size ETV
vector 229 World.node[122].appl.middleware.ExampleService proof_requested ETV
167	3952515	393.054924767022	7
167	5237077	453.054924767022	17
166	3952515	393.054924767022	3
166	5237077	453.054924767022	5
175	4191053	405.070163630694	5
175	5550536	465.070163630694	6
174	4191053	405.070163630694	1
174	5550536	465.070163630694	3
vector 230 World.node[124].appl.middleware.ExampleService proof_size ETV
vector 231 World.node[124].appl.middleware.ExampleService proof_requested ETV
123	2586946	314.160186674557	2
123	3648520	377.08896730456	11
123	4868489	437.08896730456	16
123	6161051	497.08896730456	10
122	2586946	314.160186674557	2
122	3648520	377.08896730456	1
122	4868489	437.08896730456	4
122	6161051	497.08896730456	3
205	5160748	450.005543358042	16
204	5160748	450.005543358042	5
151	3446576	366.061506788316	4
151	4615911	426.061506788316	13
151	5976354	486.061506788316	9
150	3446576	366.061506788316	2
150	4615911	426.061506788316	7
150	5976354	486.061506788316	1
215	5664963	470.154134570988	5
214	5664963	470.154134570988	5
vector 232 World.node[119].appl.middleware.ExampleService proof_size ETV
vector 233 World.node[119].appl.middleware.ExampleService proof_requested ETV
101	1795104	255.024292847933	12
101	2598349	315.024292847933	14
101	3611472	375.024292847933	16
101	4751090	432.066301598238	3
101	6129275	495.024292847933	11
100	1795104	255.024292847933	4
100	2598349	315.024292847933	7
100	3611472	375.024292847933	6
100	4751090	432.066301598238	3
100	6129275	495.024292847933	5
141	3036167	341.023665408301	9
141	4115887	401.023665408301	12
141	5447582	461.023665408301	7
141	6582282	521.023665408301	12
140	3036167	341.023665408301	4
140	4115887	401.023665408301	3
140	5447582	461.023665408301	3
140	6582282	521.023665408301	4
vector 234 World.node[121].appl.middleware.ExampleService proof_size ETV
vector 235 World.node[121].appl.middleware.ExampleService proof_requested ETV
vector 236 World.node[133].appl.middleware.ExampleService proof_size ETV
vector 237 World.node[133].appl.middleware.ExampleService proof_requested ETV
vector 238 World.node[132].appl.middleware.ExampleService proof_size ETV
vector 239 World.node[132].appl.middleware.ExampleService proof_requested ETV
221	5923186	483.078032360249	11
220	5923186	483.078032360249	7
235	6669951	526.032401368069	2
234	6669951	526.032401368069	1
vector 240 World.node[126].appl.middleware.ExampleService proof_size ETV
vector 241 World.node[126].appl.middleware.ExampleService proof_requested ETV
vector 242 World.node[129].appl.middleware.ExampleService proof_size ETV
vector 243 World.node[129].appl.middleware.ExampleService proof_requested ETV
vector 244 World.node[131].appl.middleware.ExampleService proof_size ETV
vector 245 World.node[131].appl.middleware.ExampleService proof_requested ETV
95	1446490	230.019449850312	7
95	2271441	290.019449850312	9
95	3191578	350.019449850312	10
95	4291280	410.019449850312	15
95	5594552	467.079099658556	2
95	6684516	527.019809476221	1
94	1446490	230.019449850312	3
94	2271441	290.019449850312	2
94	3191578	350.019449850312	1
94	4291280	410.019449850312	6
94	5594552	467.079099658556	2
94	6684516	527.019809476221	1
185	4475385	419.081865369063	13
185	5788363	476.182203181048	8
185	6832408	536.142236635335	1
184	4475385	419.081865369063	8
184	5788363	476.182203181048	8
184	6832408	536.142236635335	1
231	6273215	504.021838408383	12
230	6273215	504.021838408383	7
187	4513429	421.048330042441	12
187	5883648	481.048330042441	6
187	6900440	541.048330042441	13
186	4513429	421.048330042441	6
186	5883648	481.048330042441	3
186	6900440	541.048330042441	3
vector 246 World.node[127].appl.middleware.ExampleService proof_size ETV
vector 247 World.node[127].appl.middleware.ExampleService proof_requested ETV
181	4255188	408.084425077075	16
181	5619507	468.084425077075	4
181	6707423	528.084425077075	11
180	4255188	408.084425077075	6
180	5619507	468.084425077075	3
180	6707423	528.084425077075	2
197	4912344	439.069018460019	15
197	6191027	499.069018460019	10
196	4912344	439.069018460019	6
196	6191027	499.069018460019	7
155	3576901	373.035468717315	4
155	4773081	433.035468717315	8
155	6095686	493.035468717315	18
154	3576901	373.035468717315	1
154	4773081	433.035468717315	3
154	6095686	493.035468717315	4
vector 248 World.node[139].appl.middleware.ExampleService proof_size ETV
vector 249 World.node[139].appl.middleware.ExampleService proof_requested ETV
vector 250 World.node[134].appl.middleware.ExampleService proof_size ETV
vector 251 World.node[134].appl.middleware.ExampleService proof_requested ETV
vector 252 World.node[135].appl.middleware.ExampleService proof_size ETV
vector 253 World.node[135].appl.middleware.ExampleService proof_requested ETV
229	6205786	500.067215217208	8
228	6205786	500.067215217208	6
233	6549519	519.052648825012	7
232	6549519	519.052648825012	4
145	3212492	351.029391306359	10
145	4312604	411.029391306359	14
145	5618728	468.074907946473	4
145	6752992	531.029391306359	17
144	3212492	351.029391306359	4
144	4312604	411.029391306359	8
144	5618728	468.074907946473	4
144	6752992	531.029391306359	8
vector 254 World.node[128].appl.middleware.ExampleService proof_size ETV
vector 255 World.node[128].appl.middleware.ExampleService proof_requested ETV
vector 256 World.node[130].appl.middleware.ExampleService proof_size ETV
vector 257 World.node[130].appl.middleware.ExampleService proof_requested ETV
169	4063359	398.056564238318	19
169	5374801	458.056564238318	17
169	6529459	518.056564238318	15
168	4063359	398.056564238318	10
168	5374801	458.056564238318	11
168	6529459	518.056564238318	8
247	6992390	546.094562792592	15
246	6992390	546.094562792592	5
vector 258 World.node[138].appl.middleware.ExampleService proof_size ETV
vector 259 World.node[138].appl.middleware.ExampleService proof_requested ETV
241	6815456	535.049173438735	20
240	6815456	535.049173438735	7
vector 260 World.node[143].appl.middleware.ExampleService proof_size ETV
vector 261 World.node[143].appl.middleware.ExampleService proof_requested ETV
vector 262 World.node[137].appl.middleware.ExampleService proof_size ETV
vector 263 World.node[137].appl.middleware.ExampleService proof_requested ETV
209	5548805	465.026794015383	10
209	6651396	525.026794015383	15
208	5548805	465.026794015383	2
208	6651396	525.026794015383	5
vector 264 World.node[136].appl.middleware.ExampleService proof_size ETV
vector 265 World.node[136].appl.middleware.ExampleService proof_requested ETV
vector 266 World.node[149].appl.middleware.ExampleService proof_size ETV
vector 267 World.node[149].appl.middleware.ExampleService proof_requested ETV
vector 268 World.node[140].appl.middleware.ExampleService proof_size ETV
vector 269 World.node[140].appl.middleware.ExampleService proof_requested ETV
253	7136276	555.061357062985	8
252	7136276	555.061357062985	5
201	5045079	445.03691012687	11
201	6291403	505.03691012687	3
201	7299978	565.03691012687	12
200	5045079	445.03691012687	2
200	6291403	505.03691012687	0
200	7299978	565.03691012687	5
149	3370300	362.055116519495	4
149	4531607	422.055116519495	8
149	5847002	479.154135150439	3
149	6918356	542.055116519495	11
148	3370300	362.055116519495	0
148	4531607	422.055116519495	2
148	5847002	479.154135150439	3
148	6918356	542.055116519495	2
vector 270 World.node[147].appl.middleware.ExampleService proof_size ETV
vector 271 World.node[147].appl.middleware.ExampleService proof_requested ETV
vector 272 World.node[148].appl.middleware.ExampleService proof_size ETV
vector 273 World.node[148].appl.middleware.ExampleService proof_requested ETV
173	4169946	404.012695238064	11
173	5521935	464.012695238064	13
173	6631429	524.012695238064	11
173	7600440	584.012695238064	5
172	4169946	404.012695238064	1
172	5521935	464.012695238064	6
172	6631429	524.012695238064	3
172	7600440	584.012695238064	2
vector 274 World.node[146].appl.middleware.ExampleService proof_size ETV
vector 275 World.node[146].appl.middleware.ExampleService proof_requested ETV
vector 276 World.node[142].appl.middleware.ExampleService proof_size ETV
vector 277 World.node[142].appl.middleware.ExampleService proof_requested ETV
171	4098253	400.008827083395	12
171	5424904	460.008827083395	13
171	6564929	520.008827083395	13
171	7538640	580.008827083395	5
170	4098253	400.008827083395	1
170	5424904	460.008827083395	6
170	6564929	520.008827083395	2
170	7538640	580.008827083395	3
vector 278 World.node[150].appl.middleware.ExampleService proof_size ETV
vector 279 World.node[150].appl.middleware.ExampleService proof_requested ETV
211	5591422	467.027370588388	8
211	6684977	527.027370588388	9
211	7647311	587.027370588388	5
210	5591422	467.027370588388	1
210	6684977	527.027370588388	1
210	7647311	587.027370588388	0
vector 280 World.node[155].appl.middleware.ExampleService proof_size ETV
vector 281 World.node[155].appl.middleware.ExampleService proof_requested ETV
191	4617283	426.094022224704	18
191	5977840	486.094022224704	8
191	6992264	546.094022224704	8
191	8018787	606.094022224704	10
190	4617283	426.094022224704	5
190	5977840	486.094022224704	2
190	6992264	546.094022224704	3
190	8018787	606.094022224704	3
165	3892550	390.018458429491	6
165	5161551	450.018458429491	16
165	6381500	510.018458429491	14
165	7381754	570.018458429491	20
164	3892550	390.018458429491	2
164	5161551	450.018458429491	3
164	6381500	510.018458429491	2
164	7381754	570.018458429491	7
193	4707854	430.099250494502	13
193	6050992	490.099250494502	11
193	7058067	550.099250494502	7
192	4707854	430.099250494502	3
192	6050992	490.099250494502	2
192	7058067	550.099250494502	4
vector 282 World.node[144].appl.middleware.ExampleService proof_size ETV
vector 283 World.node[144].appl.middleware.ExampleService proof_requested ETV
183	4272176	409.006511643622	16
183	5637542	469.006511643622	4
183	6721832	529.006511643622	16
183	7683617	589.006511643622	6
182	4272176	409.006511643622	5
182	5637542	469.006511643622	1
182	6721832	529.006511643622	2
182	7683617	589.006511643622	0
vector 284 World.node[141].appl.middleware.ExampleService proof_size ETV
vector 285 World.node[141].appl.middleware.ExampleService proof_requested ETV
195	4845428	436.05581742893	16
195	6145125	496.05581742893	10
195	7151435	556.05581742893	14
194	4845428	436.05581742893	7
194	6145125	496.05581742893	2
194	7151435	556.05581742893	5
vector 286 World.node[156].appl.middleware.ExampleService proof_size ETV
vector 287 World.node[156].appl.middleware.ExampleService proof_requested ETV
vector 288 World.node[145].appl.middleware.ExampleService proof_size ETV
vector 289 World.node[145].appl.middleware.ExampleService proof_requested ETV
213	5657405	470.018869241979	18
213	6736519	530.018869241979	12
213	7702975	590.018869241979	18
212	5657405	470.018869241979	7
212	6736519	530.018869241979	5
212	7702975	590.018869241979	6
279	8022605	606.178386047114	2
278	8022605	606.178386047114	2
257	7284396	564.034137567063	19
256	7284396	564.034137567063	8
vector 290 World.node[157].appl.middleware.ExampleService proof_size ETV
vector 291 World.node[157].appl.middleware.ExampleService proof_requested ETV
243	6816184	535.08177532102	13
243	7802528	595.08177532102	11
242	6816184	535.08177532102	2
242	7802528	595.08177532102	2
153	3467034	367.081580028334	8
153	4639017	427.081580028334	8
153	5996911	487.081580028334	8
153	7009142	547.081580028334	15
153	8039263	607.081580028334	8
152	3467034	367.081580028334	2
152	4639017	427.081580028334	1
152	5996911	487.081580028334	3
152	7009142	547.081580028334	6
152	8039263	607.081580028334	2
vector 292 World.node[158].appl.middleware.ExampleService proof_size ETV
vector 293 World.node[158].appl.middleware.ExampleService proof_requested ETV
237	6684822	527.026965215942	12
237	7647309	587.026965215942	11
236	6684822	527.026965215942	3
236	7647309	587.026965215942	5
vector 294 World.node[160].appl.middleware.ExampleService proof_size ETV
vector 295 World.node[160].appl.middleware.ExampleService proof_requested ETV
131	2870664	332.097214964777	17
131	3933569	392.097214964777	4
131	5209907	452.097214964777	17
131	6419604	512.097214964777	12
131	7417583	572.097214964777	7
131	8381275	632.097214964777	16
130	2870664	332.097214964777	7
130	3933569	392.097214964777	2
130	5209907	452.097214964777	1
130	6419604	512.097214964777	2
130	7417583	572.097214964777	3
130	8381275	632.097214964777	3
vector 296 World.node[153].appl.middleware.ExampleService proof_size ETV
vector 297 World.node[153].appl.middleware.ExampleService proof_requested ETV
vector 298 World.node[165].appl.middleware.ExampleService proof_size ETV
vector 299 World.node[165].appl.middleware.ExampleService proof_requested ETV
vector 300 World.node[152].appl.middleware.ExampleService proof_size ETV
vector 301 World.node[152].appl.middleware.ExampleService proof_requested ETV
273	7876580	599.011834536074	10
272	7876580	599.011834536074	2
vector 302 World.node[166].appl.middleware.ExampleService proof_size ETV
vector 303 World.node[166].appl.middleware.ExampleService proof_requested ETV
207	5187234	451.073266339535	12
207	6402908	511.073266339535	10
207	7400854	571.073266339535	2
207	8364317	631.073266339535	10
206	5187234	451.073266339535	3
206	6402908	511.073266339535	4
206	7400854	571.073266339535	0
206	8364317	631.073266339535	1
vector 304 World.node[168].appl.middleware.ExampleService proof_size ETV
vector 305 World.node[168].appl.middleware.ExampleService proof_requested ETV
285	8123537	612.027938406239	11
284	8123537	612.027938406239	3
vector 306 World.node[162].appl.middleware.ExampleService proof_size ETV
vector 307 World.node[162].appl.middleware.ExampleService proof_requested ETV
vector 308 World.node[159].appl.middleware.ExampleService proof_size ETV
vector 309 World.node[159].appl.middleware.ExampleService proof_requested ETV
vector 310 World.node[163].appl.middleware.ExampleService proof_size ETV
vector 311 World.node[163].appl.middleware.ExampleService proof_requested ETV
vector 312 World.node[172].appl.middleware.ExampleService proof_size ETV
vector 313 World.node[172].appl.middleware.ExampleService proof_requested ETV
255	7252021	562.032205386576	15
255	8259078	622.032205386576	19
254	7252021	562.032205386576	6
254	8259078	622.032205386576	4
249	7072189	551.07897856664	2
249	8149874	614.019567836123	17
249	8960524	671.01993704545	1
248	7072189	551.07897856664	2
248	8149874	614.019567836123	3
248	8960524	671.01993704545	1
vector 314 World.node[173].appl.middleware.ExampleService proof_size ETV
vector 315 World.node[173].appl.middleware.ExampleService proof_requested ETV
vector 316 World.node[167].appl.middleware.ExampleService proof_size ETV
vector 317 World.node[167].appl.middleware.ExampleService proof_requested ETV
vector 318 World.node[175].appl.middleware.ExampleService proof_size ETV
vector 319 World.node[175].appl.middleware.ExampleService proof_requested ETV
vector 320 World.node[164].appl.middleware.ExampleService proof_size ETV
vector 321 World.node[164].appl.middleware.ExampleService proof_requested ETV
vector 322 World.node[169].appl.middleware.ExampleService proof_size ETV
vector 323 World.node[169].appl.middleware.ExampleService proof_requested ETV
225	6031877	489.077421521232	6
225	7041906	549.077421521232	7
225	8077194	609.077421521232	9
225	8931361	669.077421521232	8
224	6031877	489.077421521232	2
224	7041906	549.077421521232	3
224	8077194	609.077421521232	5
224	8931361	669.077421521232	2
227	6146253	496.077166656358	14
227	7152106	556.077166656358	8
227	8178378	616.077166656358	8
227	9041662	676.077166656358	10
226	6146253	496.077166656358	4
226	7152106	556.077166656358	0
226	8178378	616.077166656358	1
226	9041662	676.077166656358	4
263	7448801	574.098167719762	9
263	8413399	634.098167719762	13
262	7448801	574.098167719762	2
262	8413399	634.098167719762	8
vector 324 World.node[179].appl.middleware.ExampleService proof_size ETV
vector 325 World.node[179].appl.middleware.ExampleService proof_requested ETV
vector 326 World.node[171].appl.middleware.ExampleService proof_size ETV
vector 327 World.node[171].appl.middleware.ExampleService proof_requested ETV
301	8642175	650.052225563419	16
300	8642175	650.052225563419	9
223	5943890	484.095800536522	5
223	6956476	544.095800536522	22
223	7979269	604.095800536522	7
223	8854950	664.095800536522	12
222	5943890	484.095800536522	1
222	6956476	544.095800536522	4
222	7979269	604.095800536522	3
222	8854950	664.095800536522	1
271	7860499	598.025050762692	5
271	8762224	658.025050762692	9
270	7860499	598.025050762692	2
270	8762224	658.025050762692	4
287	8165149	615.095733291167	10
287	9026896	675.095733291167	10
286	8165149	615.095733291167	2
286	9026896	675.095733291167	4
309	8852830	664.035336758196	10
308	8852830	664.035336758196	1
297	8585324	646.070380130666	9
297	9587509	706.070380130666	8
296	8585324	646.070380130666	4
296	9587509	706.070380130666	1
vector 328 World.node[180].appl.middleware.ExampleService proof_size ETV
vector 329 World.node[180].appl.middleware.ExampleService proof_requested ETV
vector 330 World.node[170].appl.middleware.ExampleService proof_size ETV
vector 331 World.node[170].appl.middleware.ExampleService proof_requested ETV
251	7100759	553.016390808765	7
251	8136995	613.016390808765	10
251	8993473	673.016390808765	6
250	7100759	553.016390808765	2
250	8136995	613.016390808765	3
250	8993473	673.016390808765	1
219	5840150	479.002093433985	8
219	6870882	539.002093433985	15
219	7876179	599.002093433985	10
219	8773323	659.002093433985	5
218	5840150	479.002093433985	4
218	6870882	539.002093433985	3
218	7876179	599.002093433985	3
218	8773323	659.002093433985	0
265	7576054	582.092459835428	1
265	8570666	645.032089164993	15
265	9568492	705.032089164993	6
264	7576054	582.092459835428	1
264	8570666	645.032089164993	8
264	9568492	705.032089164993	1
vector 332 World.node[181].appl.middleware.ExampleService proof_size ETV
vector 333 World.node[181].appl.middleware.ExampleService proof_requested ETV
vector 334 World.node[178].appl.middleware.ExampleService proof_size ETV
vector 335 World.node[178].appl.middleware.ExampleService proof_requested ETV
277	7955961	603.031413649069	9
277	8837395	663.031413649069	17
277	9784695	720.124365428295	1
276	7955961	603.031413649069	4
276	8837395	663.031413649069	4
276	9784695	720.124365428295	1
vector 336 World.node[174].appl.middleware.ExampleService proof_size ETV
vector 337 World.node[174].appl.middleware.ExampleService proof_requested ETV
vector 338 World.node[182].appl.middleware.ExampleService proof_size ETV
vector 339 World.node[182].appl.middleware.ExampleService proof_requested ETV
305	8724617	655.177940158313	9
305	9718005	715.077940158313	10
304	8724617	655.177940158313	1
304	9718005	715.077940158313	3
vector 340 World.node[177].appl.middleware.ExampleService proof_size ETV
vector 341 World.node[177].appl.middleware.ExampleService proof_requested ETV
vector 342 World.node[187].appl.middleware.ExampleService proof_size ETV
vector 343 World.node[187].appl.middleware.ExampleService proof_requested ETV
vector 344 World.node[188].appl.middleware.ExampleService proof_size ETV
vector 345 World.node[188].appl.middleware.ExampleService proof_requested ETV
259	7433516	573.070805339492	4
259	8395814	633.070805339492	15
259	9360391	693.070805339492	6
258	7433516	573.070805339492	3
258	8395814	633.070805339492	4
258	9360391	693.070805339492	1
vector 346 World.node[186].appl.middleware.ExampleService proof_size ETV
vector 347 World.node[186].appl.middleware.ExampleService proof_requested ETV
269	7589865	583.059051218187	8
269	8542904	643.059051218187	10
269	9537610	703.059051218187	10
268	7589865	583.059051218187	4
268	8542904	643.059051218187	2
268	9537610	703.059051218187	3
vector 348 World.node[183].appl.middleware.ExampleService proof_size ETV
vector 349 World.node[183].appl.middleware.ExampleService proof_requested ETV
vector 350 World.node[176].appl.middleware.ExampleService proof_size ETV
vector 351 World.node[176].appl.middleware.ExampleService proof_requested ETV
vector 352 World.node[189].appl.middleware.ExampleService proof_size ETV
vector 353 World.node[189].appl.middleware.ExampleService proof_requested ETV
vector 354 World.node[184].appl.middleware.ExampleService proof_size ETV
vector 355 World.node[184].appl.middleware.ExampleService proof_requested ETV
275	7937671	602.069752944144	8
275	8823979	662.069752944144	9
275	9812724	722.069752944144	4
274	7937671	602.069752944144	2
274	8823979	662.069752944144	2
274	9812724	722.069752944144	1
vector 356 World.node[190].appl.middleware.ExampleService proof_size ETV
vector 357 World.node[190].appl.middleware.ExampleService proof_requested ETV
217	5822984	478.020565711777	10
217	6857223	538.020565711777	6
217	7860354	598.020565711777	19
217	8761999	658.020565711777	4
217	9754914	718.020565711777	4
216	5822984	478.020565711777	4
216	6857223	538.020565711777	2
216	7860354	598.020565711777	8
216	8761999	658.020565711777	3
216	9754914	718.020565711777	2
323	9221616	686.060736667691	7
323	10272282	746.060736667691	19
322	9221616	686.060736667691	1
322	10272282	746.060736667691	8
291	8314124	627.060503876093	10
291	9242331	687.060503876093	11
291	10290160	747.060503876093	7
290	8314124	627.060503876093	2
290	9242331	687.060503876093	4
290	10290160	747.060503876093	2
239	6773044	532.089704040112	8
239	7741695	592.089704040112	19
239	8676547	652.089704040112	7
239	9681127	712.089704040112	15
239	10729393	772.089704040112	10
238	6773044	532.089704040112	1
238	7741695	592.089704040112	2
238	8676547	652.089704040112	1
238	9681127	712.089704040112	4
238	10729393	772.089704040112	4
321	9202700	685.033439550409	10
321	10255136	745.033439550409	15
320	9202700	685.033439550409	1
320	10255136	745.033439550409	6
vector 358 World.node[199].appl.middleware.ExampleService proof_size ETV
vector 359 World.node[199].appl.middleware.ExampleService proof_requested ETV
261	7447517	574.03597468948	8
261	8411166	634.03597468948	5
261	9377130	694.03597468948	14
261	10419801	754.03597468948	13
260	7447517	574.03597468948	7
260	8411166	634.03597468948	3
260	9377130	694.03597468948	3
260	10419801	754.03597468948	6
315	9056283	677.069372247276	13
315	10100906	737.069372247276	6
314	9056283	677.069372247276	6
314	10100906	737.069372247276	5
vector 360 World.node[185].appl.middleware.ExampleService proof_size ETV
vector 361 World.node[185].appl.middleware.ExampleService proof_requested ETV
357	10380675	752.026924813353	5
356	10380675	752.026924813353	1
vector 362 World.node[193].appl.middleware.ExampleService proof_size ETV
vector 363 World.node[193].appl.middleware.ExampleService proof_requested ETV
vector 364 World.node[191].appl.middleware.ExampleService proof_size ETV
vector 365 World.node[191].appl.middleware.ExampleService proof_requested ETV
341	9951738	729.099659052561	2
341	11005853	786.187038859582	3
340	9951738	729.099659052561	1
340	11005853	786.187038859582	3
293	8412021	634.064687553397	13
293	9378370	694.064687553397	8
293	10421501	754.064687553397	2
292	8412021	634.064687553397	3
292	9378370	694.064687553397	2
292	10421501	754.064687553397	1
vector 366 World.node[195].appl.middleware.ExampleService proof_size ETV
vector 367 World.node[195].appl.middleware.ExampleService proof_requested ETV
vector 368 World.node[198].appl.middleware.ExampleService proof_size ETV
vector 369 World.node[198].appl.middleware.ExampleService proof_requested ETV
vector 370 World.node[197].appl.middleware.ExampleService proof_size ETV
vector 371 World.node[197].appl.middleware.ExampleService proof_requested ETV
vector 372 World.node[192].appl.middleware.ExampleService proof_size ETV
vector 373 World.node[192].appl.middleware.ExampleService proof_requested ETV
283	8094486	610.050123696262	17
283	8948037	670.050123696262	8
283	9969540	730.050123696262	10
283	11075807	790.050123696262	11
282	8094486	610.050123696262	9
282	8948037	670.050123696262	3
282	9969540	730.050123696262	4
282	11075807	790.050123696262	3
vector 374 World.node[194].appl.middleware.ExampleService proof_size ETV
vector 375 World.node[194].appl.middleware.ExampleService proof_requested ETV
307	8824610	662.081252364093	15
307	9813644	722.081252364093	10
307	10921207	782.081252364093	1
306	8824610	662.081252364093	12
306	9813644	722.081252364093	2
306	10921207	782.081252364093	0
vector 376 World.node[207].appl.middleware.ExampleService proof_size ETV
vector 377 World.node[207].appl.middleware.ExampleService proof_requested ETV
375	11361899	808.031396855041	5
374	11361899	808.031396855041	0
vector 378 World.node[208].appl.middleware.ExampleService proof_size ETV
vector 379 World.node[208].appl.middleware.ExampleService proof_requested ETV
327	9392635	695.04268561129	10
327	10435193	755.04268561129	7
327	11494967	815.04268561129	15
326	9392635	695.04268561129	3
326	10435193	755.04268561129	4
326	11494967	815.04268561129	4
317	9092900	679.081639324478	5
317	10142766	739.081639324478	15
317	11218269	799.081639324478	4
316	9092900	679.081639324478	0
316	10142766	739.081639324478	3
316	11218269	799.081639324478	0
vector 380 World.node[202].appl.middleware.ExampleService proof_size ETV
vector 381 World.node[202].appl.middleware.ExampleService proof_requested ETV
245	6829647	536.041407153802	3
245	7821197	596.041407153802	11
245	8733717	656.041407153802	4
245	9728469	716.041407153802	7
245	10810659	776.041407153802	21
244	6829647	536.041407153802	1
244	7821197	596.041407153802	7
244	8733717	656.041407153802	2
244	9728469	716.041407153802	1
244	10810659	776.041407153802	10
vector 382 World.node[203].appl.middleware.ExampleService proof_size ETV
vector 383 World.node[203].appl.middleware.ExampleService proof_requested ETV
319	9160075	683.040741514671	3
319	10215024	743.040741514671	10
319	11279125	803.040741514671	15
318	9160075	683.040741514671	1
318	10215024	743.040741514671	2
318	11279125	803.040741514671	0
vector 384 World.node[201].appl.middleware.ExampleService proof_size ETV
vector 385 World.node[201].appl.middleware.ExampleService proof_requested ETV
vector 386 World.node[204].appl.middleware.ExampleService proof_size ETV
vector 387 World.node[204].appl.middleware.ExampleService proof_requested ETV
vector 388 World.node[205].appl.middleware.ExampleService proof_size ETV
vector 389 World.node[205].appl.middleware.ExampleService proof_requested ETV
337	9870324	725.073599296226	6
337	10979750	785.073599296226	11
336	9870324	725.073599296226	3
336	10979750	785.073599296226	2
vector 390 World.node[206].appl.middleware.ExampleService proof_size ETV
vector 391 World.node[206].appl.middleware.ExampleService proof_requested ETV
331	9633710	709.049256356503	16
331	10671254	769.049256356503	11
331	11804459	829.049256356503	16
330	9633710	709.049256356503	3
330	10671254	769.049256356503	3
330	11804459	829.049256356503	9
vector 392 World.node[212].appl.middleware.ExampleService proof_size ETV
vector 393 World.node[212].appl.middleware.ExampleService proof_requested ETV
371	11134821	794.043934138468	9
370	11134821	794.043934138468	1
vector 394 World.node[213].appl.middleware.ExampleService proof_size ETV
vector 395 World.node[213].appl.middleware.ExampleService proof_requested ETV
vector 396 World.node[210].appl.middleware.ExampleService proof_size ETV
vector 397 World.node[210].appl.middleware.ExampleService proof_requested ETV
vector 398 World.node[215].appl.middleware.ExampleService proof_size ETV
vector 399 World.node[215].appl.middleware.ExampleService proof_requested ETV
vector 400 World.node[196].appl.middleware.ExampleService proof_size ETV
vector 401 World.node[196].appl.middleware.ExampleService proof_requested ETV
325	9380049	694.107773973304	2
325	10418225	754.007773973304	13
325	11412696	811.120682185662	3
324	9380049	694.107773973304	1
324	10418225	754.007773973304	11
324	11412696	811.120682185662	3
369	11134374	794.03370181988	4
368	11134374	794.03370181988	3
vector 402 World.node[216].appl.middleware.ExampleService proof_size ETV
vector 403 World.node[216].appl.middleware.ExampleService proof_requested ETV
333	9756624	718.071843078057	6
333	10849233	778.071843078057	13
333	11919294	835.237862333516	5
332	9756624	718.071843078057	1
332	10849233	778.071843078057	6
332	11919294	835.237862333516	5
vector 404 World.node[211].appl.middleware.ExampleService proof_size ETV
vector 405 World.node[211].appl.middleware.ExampleService proof_requested ETV
353	10238290	744.082168464013	8
353	11249281	801.142528208992	1
352	10238290	744.082168464013	1
352	11249281	801.142528208992	1
vector 406 World.node[209].appl.middleware.ExampleService proof_size ETV
vector 407 World.node[209].appl.middleware.ExampleService proof_requested ETV
313	8979095	672.0765793256	19
313	10006205	732.0765793256	15
313	11104833	792.0765793256	14
313	12258501	852.0765793256	21
312	8979095	672.0765793256	7
312	10006205	732.0765793256	4
312	11104833	792.0765793256	9
312	12258501	852.0765793256	5
339	9910156	727.022553947987	4
339	11019170	787.022553947987	16
339	12148943	847.022553947987	14
338	9910156	727.022553947987	2
338	11019170	787.022553947987	0
338	12148943	847.022553947987	3
387	11820749	830.060570930084	16
386	11820749	830.060570930084	6
vector 408 World.node[217].appl.middleware.ExampleService proof_size ETV
vector 409 World.node[217].appl.middleware.ExampleService proof_requested ETV
289	8217113	619.026440387755	10
289	9090014	679.026440387755	8
289	10139487	739.026440387755	10
289	11216742	799.026440387755	7
289	12391234	859.026440387755	9
288	8217113	619.026440387755	1
288	9090014	679.026440387755	1
288	10139487	739.026440387755	2
288	11216742	799.026440387755	5
288	12391234	859.026440387755	2
vector 410 World.node[221].appl.middleware.ExampleService proof_size ETV
vector 411 World.node[221].appl.middleware.ExampleService proof_requested ETV
vector 412 World.node[220].appl.middleware.ExampleService proof_size ETV
vector 413 World.node[220].appl.middleware.ExampleService proof_requested ETV
vector 414 World.node[218].appl.middleware.ExampleService proof_size ETV
vector 415 World.node[218].appl.middleware.ExampleService proof_requested ETV
281	8058188	608.092359468364	4
281	8914187	668.092359468364	13
281	9931707	728.092359468364	15
281	11040168	788.092359468364	16
281	12170595	848.092359468364	17
280	8058188	608.092359468364	1
280	8914187	668.092359468364	6
280	9931707	728.092359468364	9
280	11040168	788.092359468364	8
280	12170595	848.092359468364	10
303	8691069	653.079481106414	9
303	9691375	713.079481106414	15
303	10745762	773.079481106414	19
303	11874516	833.079481106414	6
302	8691069	653.079481106414	6
302	9691375	713.079481106414	6
302	10745762	773.079481106414	6
302	11874516	833.079481106414	5
359	10849400	778.07260546505	16
359	11968709	838.07260546505	11
358	10849400	778.07260546505	9
358	11968709	838.07260546505	5
vector 416 World.node[214].appl.middleware.ExampleService proof_size ETV
vector 417 World.node[214].appl.middleware.ExampleService proof_requested ETV
vector 418 World.node[227].appl.middleware.ExampleService proof_size ETV
vector 419 World.node[227].appl.middleware.ExampleService proof_requested ETV
329	9614766	708.00741180256	10
329	10650970	768.00741180256	16
329	11782795	828.00741180256	19
329	13003161	888.00741180256	5
328	9614766	708.00741180256	3
328	10650970	768.00741180256	6
328	11782795	828.00741180256	7
328	13003161	888.00741180256	1
403	12291890	854.043012323719	9
402	12291890	854.043012323719	5
361	10936442	783.025208974164	4
361	12062158	843.025208974164	20
360	10936442	783.025208974164	0
360	12062158	843.025208974164	8
367	11104835	792.079355087131	11
367	12258639	852.079355087131	14
366	11104835	792.079355087131	4
366	12258639	852.079355087131	11
373	11168941	796.099595338805	9
373	12333862	856.099595338805	11
372	11168941	796.099595338805	5
372	12333862	856.099595338805	2
299	8616272	648.141365121119	4
299	9663834	711.022275198391	12
299	10706826	771.022275198391	6
299	11837860	831.022275198391	9
299	13009194	888.117757792612	3
298	8616272	648.141365121119	4
298	9663834	711.022275198391	5
298	10706826	771.022275198391	2
298	11837860	831.022275198391	0
298	13009194	888.117757792612	3
vector 420 World.node[226].appl.middleware.ExampleService proof_size ETV
vector 421 World.node[226].appl.middleware.ExampleService proof_requested ETV
295	8512278	641.010009981692	8
295	9502676	701.010009981692	10
295	10541043	761.010009981692	19
295	11624413	821.010009981692	7
295	12860424	881.010009981692	12
294	8512278	641.010009981692	7
294	9502676	701.010009981692	7
294	10541043	761.010009981692	6
294	11624413	821.010009981692	3
294	12860424	881.010009981692	8
vector 422 World.node[223].appl.middleware.ExampleService proof_size ETV
vector 423 World.node[223].appl.middleware.ExampleService proof_requested ETV
345	10004930	732.058585645491	6
345	11104248	792.058585645491	14
345	12257221	852.058585645491	21
344	10004930	732.058585645491	5
344	11104248	792.058585645491	7
344	12257221	852.058585645491	6
365	11021209	787.064442436886	16
365	12151156	847.064442436886	10
365	13316517	907.064442436886	3
364	11021209	787.064442436886	4
364	12151156	847.064442436886	2
364	13316517	907.064442436886	2
393	11967489	838.057642273558	5
393	13167705	898.057642273558	4
392	11967489	838.057642273558	1
392	13167705	898.057642273558	1
vector 424 World.node[234].appl.middleware.ExampleService proof_size ETV
vector 425 World.node[234].appl.middleware.ExampleService proof_requested ETV
vector 426 World.node[235].appl.middleware.ExampleService proof_size ETV
vector 427 World.node[235].appl.middleware.ExampleService proof_requested ETV
311	8960959	671.02528037061	7
311	9984159	731.02528037061	7
311	11087172	791.02528037061	15
311	12235888	851.02528037061	9
311	13381670	911.02528037061	6
310	8960959	671.02528037061	3
310	9984159	731.02528037061	3
310	11087172	791.02528037061	4
310	12235888	851.02528037061	6
310	13381670	911.02528037061	2
vector 428 World.node[231].appl.middleware.ExampleService proof_size ETV
vector 429 World.node[231].appl.middleware.ExampleService proof_requested ETV
vector 430 World.node[224].appl.middleware.ExampleService proof_size ETV
vector 431 World.node[224].appl.middleware.ExampleService proof_requested ETV
vector 432 World.node[228].appl.middleware.ExampleService proof_size ETV
vector 433 World.node[228].appl.middleware.ExampleService proof_requested ETV
vector 434 World.node[232].appl.middleware.ExampleService proof_size ETV
vector 435 World.node[232].appl.middleware.ExampleService proof_requested ETV
vector 436 World.node[229].appl.middleware.ExampleService proof_size ETV
vector 437 World.node[229].appl.middleware.ExampleService proof_requested ETV
vector 438 World.node[238].appl.middleware.ExampleService proof_size ETV
vector 439 World.node[238].appl.middleware.ExampleService proof_requested ETV
343	10002703	732.020427017868	13
343	11102934	792.020427017868	7
343	12256064	852.020427017868	22
343	13350592	909.075869394783	3
342	10002703	732.020427017868	3
342	11102934	792.020427017868	2
342	12256064	852.020427017868	9
342	13350592	909.075869394783	3
vector 440 World.node[239].appl.middleware.ExampleService proof_size ETV
vector 441 World.node[239].appl.middleware.ExampleService proof_requested ETV
389	11892967	834.066546162963	2
389	13108881	894.066546162963	13
388	11892967	834.066546162963	1
388	13108881	894.066546162963	8
vector 442 World.node[237].appl.middleware.ExampleService proof_size ETV
vector 443 World.node[237].appl.middleware.ExampleService proof_requested ETV
417	12967752	886.063037761953	9
417	13939046	946.063037761953	6
416	12967752	886.063037761953	3
416	13939046	946.063037761953	0
349	10177512	741.043019835418	9
349	11246759	801.043019835418	24
349	12435633	861.043019835418	11
349	13560250	921.043019835418	14
348	10177512	741.043019835418	5
348	11246759	801.043019835418	5
348	12435633	861.043019835418	2
348	13560250	921.043019835418	2
vector 444 World.node[236].appl.middleware.ExampleService proof_size ETV
vector 445 World.node[236].appl.middleware.ExampleService proof_requested ETV
355	10256530	745.06425165066	2
355	11313545	805.06425165066	15
355	12530294	865.06425165066	9
355	13620179	925.06425165066	15
354	10256530	745.06425165066	0
354	11313545	805.06425165066	1
354	12530294	865.06425165066	5
354	13620179	925.06425165066	5
vector 446 World.node[230].appl.middleware.ExampleService proof_size ETV
vector 447 World.node[230].appl.middleware.ExampleService proof_requested ETV
267	7587932	583.014090564055	11
267	8541252	643.014090564055	18
267	9536034	703.014090564055	17
267	10571788	763.014090564055	16
267	11669058	823.014090564055	17
267	12904442	883.014090564055	2
267	13887767	943.014090564055	13
266	7587932	583.014090564055	8
266	8541252	643.014090564055	3
266	9536034	703.014090564055	8
266	10571788	763.014090564055	4
266	11669058	823.014090564055	6
266	12904442	883.014090564055	0
266	13887767	943.014090564055	3
381	11582226	819.021493288584	1
381	12882462	882.00242889151	16
381	13869807	942.00242889151	5
380	11582226	819.021493288584	1
380	12882462	882.00242889151	8
380	13869807	942.00242889151	0
421	13366301	910.047357081203	7
420	13366301	910.047357081203	1
419	13039671	890.040829605726	12
419	14004320	950.040829605726	9
418	13039671	890.040829605726	3
418	14004320	950.040829605726	1
347	10082582	736.080027942127	4
347	11167914	796.080027942127	9
347	12332819	856.080027942127	7
347	13477085	916.080027942127	15
346	10082582	736.080027942127	1
346	11167914	796.080027942127	2
346	12332819	856.080027942127	1
346	13477085	916.080027942127	1
vector 448 World.node[248].appl.middleware.ExampleService proof_size ETV
vector 449 World.node[248].appl.middleware.ExampleService proof_requested ETV
vector 450 World.node[242].appl.middleware.ExampleService proof_size ETV
vector 451 World.node[242].appl.middleware.ExampleService proof_requested ETV
vector 452 World.node[246].appl.middleware.ExampleService proof_size ETV
vector 453 World.node[246].appl.middleware.ExampleService proof_requested ETV
405	12486671	863.065545243281	10
405	13593715	923.065545243281	13
404	12486671	863.065545243281	5
404	13593715	923.065545243281	4
383	11726545	825.162539468973	1
383	13006221	888.061386441253	13
383	13971901	948.061386441253	4
382	11726545	825.162539468973	1
382	13006221	888.061386441253	3
382	13971901	948.061386441253	2
407	12509582	864.08713152213	22
407	13607765	924.08713152213	8
406	12509582	864.08713152213	3
406	13607765	924.08713152213	4
439	13760164	935.03971273778	5
438	13760164	935.03971273778	3
vector 454 World.node[249].appl.middleware.ExampleService proof_size ETV
vector 455 World.node[249].appl.middleware.ExampleService proof_requested ETV
415	12708498	874.014619106473	4
415	13744755	934.014619106473	6
414	12708498	874.014619106473	0
414	13744755	934.014619106473	1
vector 456 World.node[250].appl.middleware.ExampleService proof_size ETV
vector 457 World.node[250].appl.middleware.ExampleService proof_requested ETV
vector 458 World.node[240].appl.middleware.ExampleService proof_size ETV
vector 459 World.node[240].appl.middleware.ExampleService proof_requested ETV
vector 460 World.node[243].appl.middleware.ExampleService proof_size ETV
vector 461 World.node[243].appl.middleware.ExampleService proof_requested ETV
vector 462 World.node[251].appl.middleware.ExampleService proof_size ETV
vector 463 World.node[251].appl.middleware.ExampleService proof_requested ETV
401	12166324	848.018588445289	14
401	13329999	908.018588445289	11
401	14306200	968.018588445289	7
400	12166324	848.018588445289	4
400	13329999	908.018588445289	2
400	14306200	968.018588445289	3
vector 464 World.node[245].appl.middleware.ExampleService proof_size ETV
vector 465 World.node[245].appl.middleware.ExampleService proof_requested ETV
335	9850859	724.04887155653	11
335	10958888	784.04887155653	19
335	12082926	844.04887155653	7
335	13214420	901.085389081181	3
335	14240124	964.04887155653	12
334	9850859	724.04887155653	5
334	10958888	784.04887155653	4
334	12082926	844.04887155653	5
334	13214420	901.085389081181	3
334	14240124	964.04887155653	6
385	11763602	827.066498067905	29
385	12983864	887.066498067905	14
385	13953712	947.066498067905	17
384	11763602	827.066498067905	16
384	12983864	887.066498067905	4
384	13953712	947.066498067905	4
379	11450537	813.034727200074	18
379	12688037	873.034727200074	16
379	13732328	933.034727200074	5
379	14640131	990.10828177893	1
378	11450537	813.034727200074	1
378	12688037	873.034727200074	5
378	13732328	933.034727200074	1
378	14640131	990.10828177893	1
vector 466 World.node[252].appl.middleware.ExampleService proof_size ETV
vector 467 World.node[252].appl.middleware.ExampleService proof_requested ETV
vector 468 World.node[244].appl.middleware.ExampleService proof_size ETV
vector 469 World.node[244].appl.middleware.ExampleService proof_requested ETV
vector 470 World.node[254].appl.middleware.ExampleService proof_size ETV
vector 471 World.node[254].appl.middleware.ExampleService proof_requested ETV
409	12529321	865.043801603373	9
409	13619123	925.043801603373	13
409	14571196	985.043801603373	17
408	12529321	865.043801603373	4
408	13619123	925.043801603373	9
408	14571196	985.043801603373	2
vector 472 World.node[253].appl.middleware.ExampleService proof_size ETV
vector 473 World.node[253].appl.middleware.ExampleService proof_requested ETV
429	13590759	923.0148747114	10
429	14539728	983.0148747114	7
428	13590759	923.0148747114	2
428	14539728	983.0148747114	2
413	12687880	873.028014279855	17
413	13732074	933.028014279855	6
413	14684460	993.028014279855	4
412	12687880	873.028014279855	5
412	13732074	933.028014279855	1
412	14684460	993.028014279855	2
447	14075471	954.032744783815	15
446	14075471	954.032744783815	4
399	12152815	847.09265360292	11
399	13317346	907.09265360292	10
399	14291455	967.09265360292	4
398	12152815	847.09265360292	7
398	13317346	907.09265360292	4
398	14291455	967.09265360292	3
391	11917914	835.18315238963	2
391	13167444	898.044420376862	18
391	14142886	958.044420376862	12
391	15015820	1018.044420376862	6
390	11917914	835.18315238963	2
390	13167444	898.044420376862	2
390	14142886	958.044420376862	6
390	15015820	1018.044420376862	2
445	14058387	953.038066978101	5
445	14952349	1013.038066978101	13
444	14058387	953.038066978101	1
444	14952349	1013.038066978101	5
395	12065500	843.09606617745	3
395	13246901	903.09606617745	13
395	14226740	963.09606617745	9
394	12065500	843.09606617745	2
394	13246901	903.09606617745	2
394	14226740	963.09606617745	6
vector 474 World.node[247].appl.middleware.ExampleService proof_size ETV
vector 475 World.node[247].appl.middleware.ExampleService proof_requested ETV
vector 476 World.node[263].appl.middleware.ExampleService proof_size ETV
vector 477 World.node[263].appl.middleware.ExampleService proof_requested ETV
vector 478 World.node[258].appl.middleware.ExampleService proof_size ETV
vector 479 World.node[258].appl.middleware.ExampleService proof_requested ETV
363	11020830	787.062984295096	16
363	12150652	847.062984295096	19
363	13316251	907.062984295096	9
363	14290418	967.062984295096	8
363	15121978	1027.062984295096	9
362	11020830	787.062984295096	1
362	12150652	847.062984295096	6
362	13316251	907.062984295096	4
362	14290418	967.062984295096	1
362	15121978	1027.062984295096	6
vector 480 World.node[255].appl.middleware.ExampleService proof_size ETV
vector 481 World.node[255].appl.middleware.ExampleService proof_requested ETV
vector 482 World.node[257].appl.middleware.ExampleService proof_size ETV
vector 483 World.node[257].appl.middleware.ExampleService proof_requested ETV
377	11376947	809.059518642235	12
377	12605730	869.059518642235	19
377	13674624	929.059518642235	3
377	14624661	989.059518642235	13
376	11376947	809.059518642235	3
376	12605730	869.059518642235	8
376	13674624	929.059518642235	1
376	14624661	989.059518642235	5
397	12065609	843.098842719314	13
397	13247006	903.098842719314	12
397	14226742	963.098842719314	13
397	15073861	1023.098842719314	6
396	12065609	843.098842719314	8
396	13247006	903.098842719314	2
396	14226742	963.098842719314	1
396	15073861	1023.098842719314	4
vector 484 World.node[268].appl.middleware.ExampleService proof_size ETV
vector 485 World.node[268].appl.middleware.ExampleService proof_requested ETV
449	14309496	968.096023148904	5
449	15132156	1028.096023148904	9
448	14309496	968.096023148904	1
448	15132156	1028.096023148904	2
351	10196431	742.024835564522	7
351	11262631	802.024835564522	15
351	12396928	859.139716109606	7
351	13574629	922.024835564522	11
351	14527313	982.024835564522	7
351	15322509	1042.024835564522	7
350	10196431	742.024835564522	6
350	11262631	802.024835564522	2
350	12396928	859.139716109606	7
350	13574629	922.024835564522	3
350	14527313	982.024835564522	2
350	15322509	1042.024835564522	2
vector 486 World.node[259].appl.middleware.ExampleService proof_size ETV
vector 487 World.node[259].appl.middleware.ExampleService proof_requested ETV
433	13630207	926.01479148448	12
433	14583392	986.01479148448	17
433	15391193	1046.01479148448	10
432	13630207	926.01479148448	2
432	14583392	986.01479148448	0
432	15391193	1046.01479148448	6
vector 488 World.node[256].appl.middleware.ExampleService proof_size ETV
vector 489 World.node[256].appl.middleware.ExampleService proof_requested ETV
467	14716780	995.014080909896	7
467	15533243	1055.014080909896	14
466	14716780	995.014080909896	1
466	15533243	1055.014080909896	1
443	13922047	945.034432696458	16
443	14816841	1002.123325561976	3
443	15679838	1065.034432696458	7
442	13922047	945.034432696458	2
442	14816841	1002.123325561976	3
442	15679838	1065.034432696458	3
vector 490 World.node[261].appl.middleware.ExampleService proof_size ETV
vector 491 World.node[261].appl.middleware.ExampleService proof_requested ETV
457	14545699	983.094581820304	13
457	15292187	1040.156132471064	2
456	14545699	983.094581820304	3
456	15292187	1040.156132471064	2
451	14355123	971.006791124679	16
451	15163537	1031.006791124679	3
450	14355123	971.006791124679	2
450	15163537	1031.006791124679	0
vector 492 World.node[260].appl.middleware.ExampleService proof_size ETV
vector 493 World.node[260].appl.middleware.ExampleService proof_requested ETV
477	15199656	1034.026133707771	10
476	15199656	1034.026133707771	4
vector 494 World.node[262].appl.middleware.ExampleService proof_size ETV
vector 495 World.node[262].appl.middleware.ExampleService proof_requested ETV
vector 496 World.node[266].appl.middleware.ExampleService proof_size ETV
vector 497 World.node[266].appl.middleware.ExampleService proof_requested ETV
vector 498 World.node[271].appl.middleware.ExampleService proof_size ETV
vector 499 World.node[271].appl.middleware.ExampleService proof_requested ETV
441	13855512	941.018632907653	7
441	14801180	1001.018632907653	18
441	15622227	1061.018632907653	9
440	13855512	941.018632907653	2
440	14801180	1001.018632907653	3
440	15622227	1061.018632907653	2
479	15257835	1038.04687472193	3
478	15257835	1038.04687472193	0
vector 500 World.node[264].appl.middleware.ExampleService proof_size ETV
vector 501 World.node[264].appl.middleware.ExampleService proof_requested ETV
vector 502 World.node[265].appl.middleware.ExampleService proof_size ETV
vector 503 World.node[265].appl.middleware.ExampleService proof_requested ETV
459	14585768	986.06853850456	17
459	15394474	1046.06853850456	8
458	14585768	986.06853850456	0
458	15394474	1046.06853850456	6
vector 504 World.node[272].appl.middleware.ExampleService proof_size ETV
vector 505 World.node[272].appl.middleware.ExampleService proof_requested ETV
437	13758844	935.013019479602	12
437	14716606	995.013019479602	17
437	15493127	1052.134931840263	8
436	13758844	935.013019479602	3
436	14716606	995.013019479602	11
436	15493127	1052.134931840263	8
481	15324687	1042.081807504618	14
480	15324687	1042.081807504618	6
425	13542773	920.025658545527	15
425	14494009	980.025658545527	15
425	15287356	1040.025658545527	12
424	13542773	920.025658545527	6
424	14494009	980.025658545527	2
424	15287356	1040.025658545527	7
455	14480724	979.034528972092	8
455	15273208	1039.034528972092	5
454	14480724	979.034528972092	4
454	15273208	1039.034528972092	1
vector 506 World.node[267].appl.middleware.ExampleService proof_size ETV
vector 507 World.node[267].appl.middleware.ExampleService proof_requested ETV
461	14611330	988.040591110312	6
461	15430372	1048.040591110312	6
461	16162811	1105.228272617036	4
460	14611330	988.040591110312	1
460	15430372	1048.040591110312	5
460	16162811	1105.228272617036	4
vector 508 World.node[270].appl.middleware.ExampleService proof_size ETV
vector 509 World.node[270].appl.middleware.ExampleService proof_requested ETV
vector 510 World.node[275].appl.middleware.ExampleService proof_size ETV
vector 511 World.node[275].appl.middleware.ExampleService proof_requested ETV
427	13548398	920.126578687706	4
427	14542878	983.045100466278	19
427	15336751	1043.045100466278	9
427	16137132	1103.045100466278	7
426	13548398	920.126578687706	4
426	14542878	983.045100466278	3
426	15336751	1043.045100466278	1
426	16137132	1103.045100466278	5
vector 512 World.node[280].appl.middleware.ExampleService proof_size ETV
vector 513 World.node[280].appl.middleware.ExampleService proof_requested ETV
vector 514 World.node[279].appl.middleware.ExampleService proof_size ETV
vector 515 World.node[279].appl.middleware.ExampleService proof_requested ETV
vector 516 World.node[269].appl.middleware.ExampleService proof_size ETV
vector 517 World.node[269].appl.middleware.ExampleService proof_requested ETV
465	14683857	993.018241362926	19
465	15505520	1053.018241362926	8
464	14683857	993.018241362926	4
464	15505520	1053.018241362926	3
517	16505541	1132.073256341997	5
516	16505541	1132.073256341997	2
vector 518 World.node[273].appl.middleware.ExampleService proof_size ETV
vector 519 World.node[273].appl.middleware.ExampleService proof_requested ETV
vector 520 World.node[288].appl.middleware.ExampleService proof_size ETV
vector 521 World.node[288].appl.middleware.ExampleService proof_requested ETV
vector 522 World.node[283].appl.middleware.ExampleService proof_size ETV
vector 523 World.node[283].appl.middleware.ExampleService proof_requested ETV
497	15798282	1076.009476486756	8
497	16564737	1136.009476486756	15
496	15798282	1076.009476486756	1
496	16564737	1136.009476486756	3
vector 524 World.node[276].appl.middleware.ExampleService proof_size ETV
vector 525 World.node[276].appl.middleware.ExampleService proof_requested ETV
vector 526 World.node[277].appl.middleware.ExampleService proof_size ETV
vector 527 World.node[277].appl.middleware.ExampleService proof_requested ETV
vector 528 World.node[281].appl.middleware.ExampleService proof_size ETV
vector 529 World.node[281].appl.middleware.ExampleService proof_requested ETV
vector 530 World.node[282].appl.middleware.ExampleService proof_size ETV
vector 531 World.node[282].appl.middleware.ExampleService proof_requested ETV
469	14791431	1000.063109080656	16
469	15612632	1060.063109080656	7
469	16338168	1120.063109080656	16
468	14791431	1000.063109080656	8
[...]
1571	64783681	3453.045652819681	13
1571	66468190	3513.045652819681	11
1570	57816433	3213.045652819681	7
1570	59212687	3273.045652819681	6
1570	60887980	3333.045652819681	1
1570	62812979	3393.045652819681	6
1570	64783681	3453.045652819681	3
1570	66468190	3513.045652819681	5
vector 1748 World.node[922].appl.middleware.ExampleService proof_size ETV
vector 1749 World.node[922].appl.middleware.ExampleService proof_requested ETV
1661	62211186	3376.065817410429	6
1661	64298991	3436.065817410429	13
1661	66123865	3496.065817410429	14
1660	62211186	3376.065817410429	0
1660	64298991	3436.065817410429	0
1660	66123865	3496.065817410429	4
vector 1750 World.node[919].appl.middleware.ExampleService proof_size ETV
vector 1751 World.node[919].appl.middleware.ExampleService proof_requested ETV
vector 1752 World.node[920].appl.middleware.ExampleService proof_size ETV
vector 1753 World.node[920].appl.middleware.ExampleService proof_requested ETV
vector 1754 World.node[916].appl.middleware.ExampleService proof_size ETV
vector 1755 World.node[916].appl.middleware.ExampleService proof_requested ETV
1737	66205551	3500.073645716836	14
1736	66205551	3500.073645716836	4
vector 1756 World.node[930].appl.middleware.ExampleService proof_size ETV
vector 1757 World.node[930].appl.middleware.ExampleService proof_requested ETV
vector 1758 World.node[924].appl.middleware.ExampleService proof_size ETV
vector 1759 World.node[924].appl.middleware.ExampleService proof_requested ETV
vector 1760 World.node[928].appl.middleware.ExampleService proof_size ETV
vector 1761 World.node[928].appl.middleware.ExampleService proof_requested ETV
vector 1762 World.node[931].appl.middleware.ExampleService proof_size ETV
vector 1763 World.node[931].appl.middleware.ExampleService proof_requested ETV
1719	65649999	3480.219017639179	13
1719	67032498	3540.133756271778	4
1718	65649999	3480.219017639179	13
1718	67032498	3540.133756271778	4
1673	62774505	3392.009224803094	12
1673	64755861	3452.009224803094	12
1673	66442733	3512.009224803094	7
1672	62774505	3392.009224803094	3
1672	64755861	3452.009224803094	5
1672	66442733	3512.009224803094	2
1701	64336595	3437.064675312908	18
1701	66142524	3497.064675312908	17
1701	67397421	3557.064675312908	15
1700	64336595	3437.064675312908	12
1700	66142524	3497.064675312908	0
1700	67397421	3557.064675312908	2
vector 1764 World.node[921].appl.middleware.ExampleService proof_size ETV
vector 1765 World.node[921].appl.middleware.ExampleService proof_requested ETV
1695	64302598	3436.097210636688	15
1695	66125100	3496.097210636688	9
1695	67380368	3556.097210636688	2
1694	64302598	3436.097210636688	4
1694	66125100	3496.097210636688	1
1694	67380368	3556.097210636688	0
1687	63868325	3424.045015872479	22
1687	65774047	3484.045015872479	20
1687	67109185	3544.045015872479	12
1686	63868325	3424.045015872479	6
1686	65774047	3484.045015872479	4
1686	67109185	3544.045015872479	2
1705	64363816	3438.00626611663	5
1705	66162599	3498.00626611663	7
1705	67418979	3558.00626611663	8
1704	64363816	3438.00626611663	0
1704	66162599	3498.00626611663	2
1704	67418979	3558.00626611663	1
vector 1766 World.node[925].appl.middleware.ExampleService proof_size ETV
vector 1767 World.node[925].appl.middleware.ExampleService proof_requested ETV
1589	58368263	3238.055989604909	17
1589	59897600	3298.055989604909	17
1589	61699707	3358.055989604909	19
1589	63659534	3418.055989604909	21
1589	65561694	3478.055989604909	22
1589	66989606	3538.055989604909	7
1588	58368263	3238.055989604909	1
1588	59897600	3298.055989604909	0
1588	61699707	3358.055989604909	2
1588	63659534	3418.055989604909	4
1588	65561694	3478.055989604909	13
1588	66989606	3538.055989604909	1
1659	62176301	3375.013202034449	14
1659	64264226	3435.013202034449	19
1659	66098875	3495.013202034449	23
1659	67349971	3555.013202034449	3
1658	62176301	3375.013202034449	1
1658	64264226	3435.013202034449	4
1658	66098875	3495.013202034449	7
1658	67349971	3555.013202034449	1
1739	66324565	3506.038908460294	12
1739	67546871	3563.164463682876	3
1738	66324565	3506.038908460294	2
1738	67546871	3563.164463682876	3
1667	62565461	3386.044345813431	12
1667	64604617	3446.044345813431	20
1667	66324722	3506.044345813431	17
1667	67547449	3563.176107353627	3
1666	62565461	3386.044345813431	8
1666	64604617	3446.044345813431	5
1666	66324722	3506.044345813431	0
1666	67547449	3563.176107353627	3
vector 1768 World.node[923].appl.middleware.ExampleService proof_size ETV
vector 1769 World.node[923].appl.middleware.ExampleService proof_requested ETV
vector 1770 World.node[937].appl.middleware.ExampleService proof_size ETV
vector 1771 World.node[937].appl.middleware.ExampleService proof_requested ETV
vector 1772 World.node[926].appl.middleware.ExampleService proof_size ETV
vector 1773 World.node[926].appl.middleware.ExampleService proof_requested ETV
vector 1774 World.node[936].appl.middleware.ExampleService proof_size ETV
vector 1775 World.node[936].appl.middleware.ExampleService proof_requested ETV
vector 1776 World.node[933].appl.middleware.ExampleService proof_size ETV
vector 1777 World.node[933].appl.middleware.ExampleService proof_requested ETV
1567	57352037	3188.055024302308	6
1567	58610544	3248.055024302308	20
1567	60175802	3308.055024302308	14
1567	61973580	3368.055024302308	20
1567	64013571	3428.055024302308	21
1567	65902184	3488.055024302308	33
1567	67189749	3548.055024302308	21
1566	57352037	3188.055024302308	4
1566	58610544	3248.055024302308	6
1566	60175802	3308.055024302308	7
1566	61973580	3368.055024302308	3
1566	64013571	3428.055024302308	7
1566	65902184	3488.055024302308	11
1566	67189749	3548.055024302308	6
1747	66739505	3525.075022632806	1
1746	66739505	3525.075022632806	1
vector 1778 World.node[927].appl.middleware.ExampleService proof_size ETV
vector 1779 World.node[927].appl.middleware.ExampleService proof_requested ETV
vector 1780 World.node[934].appl.middleware.ExampleService proof_size ETV
vector 1781 World.node[934].appl.middleware.ExampleService proof_requested ETV
1733	66075604	3494.075982042053	9
1733	67325690	3554.075982042053	9
1732	66075604	3494.075982042053	3
1732	67325690	3554.075982042053	1
vector 1782 World.node[935].appl.middleware.ExampleService proof_size ETV
vector 1783 World.node[935].appl.middleware.ExampleService proof_requested ETV
1569	57651950	3205.063395255269	6
1569	59023162	3265.063395255269	18
1569	60669682	3325.063395255269	19
1569	62531535	3385.063395255269	21
1569	64583087	3445.063395255269	20
1569	66308549	3505.063395255269	14
1569	67595859	3565.063395255269	3
1568	57651950	3205.063395255269	2
1568	59023162	3265.063395255269	3
1568	60669682	3325.063395255269	3
1568	62531535	3385.063395255269	9
1568	64583087	3445.063395255269	9
1568	66308549	3505.063395255269	2
1568	67595859	3565.063395255269	2
vector 1784 World.node[932].appl.middleware.ExampleService proof_size ETV
vector 1785 World.node[932].appl.middleware.ExampleService proof_requested ETV
vector 1786 World.node[940].appl.middleware.ExampleService proof_size ETV
vector 1787 World.node[940].appl.middleware.ExampleService proof_requested ETV
vector 1788 World.node[942].appl.middleware.ExampleService proof_size ETV
vector 1789 World.node[942].appl.middleware.ExampleService proof_requested ETV
1715	65414780	3474.006554511213	9
1715	66913573	3534.006554511213	6
1715	68189768	3594.006554511213	10
1714	65414780	3474.006554511213	8
1714	66913573	3534.006554511213	2
1714	68189768	3594.006554511213	3
vector 1790 World.node[938].appl.middleware.ExampleService proof_size ETV
vector 1791 World.node[938].appl.middleware.ExampleService proof_requested ETV
1699	64336426	3437.058742667735	13
1699	66142310	3497.058742667735	15
1699	67397136	3557.058742667735	11
1698	64336426	3437.058742667735	8
1698	66142310	3497.058742667735	4
1698	67397136	3557.058742667735	3
1731	65869961	3487.004049426108	5
1731	67169411	3547.004049426108	8
1731	68466988	3607.004049426108	2
1730	65869961	3487.004049426108	0
1730	67169411	3547.004049426108	2
1730	68466988	3607.004049426108	1
vector 1792 World.node[943].appl.middleware.ExampleService proof_size ETV
vector 1793 World.node[943].appl.middleware.ExampleService proof_requested ETV
1727	65739788	3483.048710730253	12
1727	67088281	3543.048710730253	12
1727	68309994	3600.064156102396	2
1726	65739788	3483.048710730253	5
1726	67088281	3543.048710730253	3
1726	68309994	3600.064156102396	2
1773	68002112	3584.093967151572	17
1772	68002112	3584.093967151572	4
1637	60724929	3327.031179681327	17
1637	62598118	3387.031179681327	14
1637	64630151	3447.031179681327	28
1637	66345380	3507.031179681327	9
1637	67639123	3567.031179681327	11
1636	60724929	3327.031179681327	2
1636	62598118	3387.031179681327	3
1636	64630151	3447.031179681327	11
1636	66345380	3507.031179681327	3
1636	67639123	3567.031179681327	2
1767	67734185	3571.088342270022	10
1766	67734185	3571.088342270022	4
vector 1794 World.node[939].appl.middleware.ExampleService proof_size ETV
vector 1795 World.node[939].appl.middleware.ExampleService proof_requested ETV
1575	57965211	3219.034947936656	19
1575	59385412	3279.034947936656	28
1575	61096208	3339.034947936656	19
1575	63040557	3399.034947936656	16
1575	64948701	3459.034947936656	19
1575	66613992	3519.034947936656	27
1575	67899149	3579.034947936656	13
1574	57965211	3219.034947936656	5
1574	59385412	3279.034947936656	10
1574	61096208	3339.034947936656	2
1574	63040557	3399.034947936656	5
1574	64948701	3459.034947936656	6
1574	66613992	3519.034947936656	6
1574	67899149	3579.034947936656	4
1775	68019654	3585.061256454489	4
1774	68019654	3585.061256454489	0
1711	64708524	3450.030534575484	4
1711	66401958	3510.030534575484	14
1711	67706511	3570.030534575484	9
1711	68885649	3630.030534575484	17
1710	64708524	3450.030534575484	1
1710	66401958	3510.030534575484	2
1710	67706511	3570.030534575484	4
1710	68885649	3630.030534575484	4
vector 1796 World.node[941].appl.middleware.ExampleService proof_size ETV
vector 1797 World.node[941].appl.middleware.ExampleService proof_requested ETV
1741	66492392	3514.019341573771	12
1741	67794382	3574.019341573771	11
1740	66492392	3514.019341573771	4
1740	67794382	3574.019341573771	3
1753	67027150	3540.026641097269	15
1753	68308840	3600.026641097269	23
1752	67027150	3540.026641097269	1
1752	68308840	3600.026641097269	5
1769	67900917	3579.071541959001	8
1769	68965881	3636.153806907188	1
1768	67900917	3579.071541959001	2
1768	68965881	3636.153806907188	1
1777	68021392	3585.099212372	16
1777	69073458	3645.099212372	5
1776	68021392	3585.099212372	7
1776	69073458	3645.099212372	2
1721	65676434	3481.0694036284	22
1721	67050051	3541.0694036284	7
1721	68327759	3601.0694036284	11
1721	69256739	3661.0694036284	10
1720	65676434	3481.0694036284	9
1720	67050051	3541.0694036284	3
1720	68327759	3601.0694036284	2
1720	69256739	3661.0694036284	4
1615	59515407	3284.028070214344	18
1615	61266580	3344.028070214344	18
1615	63217713	3404.028070214344	29
1615	65090900	3464.028070214344	27
1615	66716697	3524.028070214344	5
1615	67999476	3584.028070214344	16
1615	69060885	3644.028070214344	9
1614	59515407	3284.028070214344	1
1614	61266580	3344.028070214344	3
1614	63217713	3404.028070214344	2
1614	65090900	3464.028070214344	6
1614	66716697	3524.028070214344	4
1614	67999476	3584.028070214344	4
1614	69060885	3644.028070214344	3
1725	65708152	3482.068124469439	29
1725	67067834	3542.068124469439	12
1725	68352300	3602.068124469439	20
1725	69267743	3662.068124469439	20
1724	65708152	3482.068124469439	7
1724	67067834	3542.068124469439	3
1724	68352300	3602.068124469439	1
1724	69267743	3662.068124469439	3
1759	67494476	3561.008820657106	9
1759	68745502	3621.008820657106	7
1759	69467523	3681.008820657106	3
1758	67494476	3561.008820657106	4
1758	68745502	3621.008820657106	2
1758	69467523	3681.008820657106	2
1757	67376620	3556.035139444401	3
1757	68653787	3616.035139444401	12
1757	69425366	3676.035139444401	12
1756	67376620	3556.035139444401	0
1756	68653787	3616.035139444401	3
1756	69425366	3676.035139444401	4
1703	64338600	3437.089017756842	18
1703	66145498	3497.089017756842	17
1703	67399229	3557.089017756842	15
1703	68672239	3617.089017756842	7
1703	69434321	3677.089017756842	6
1702	64338600	3437.089017756842	4
1702	66145498	3497.089017756842	4
1702	67399229	3557.089017756842	1
1702	68672239	3617.089017756842	3
1702	69434321	3677.089017756842	3
1779	68076456	3588.058207950438	12
1779	69073757	3645.114509658096	1
1778	68076456	3588.058207950438	5
1778	69073757	3645.114509658096	1
1791	68598253	3613.052125272807	8
1791	69394777	3673.052125272807	6
1790	68598253	3613.052125272807	3
1790	69394777	3673.052125272807	3
1785	68311059	3600.087116358057	18
1785	69245395	3660.087116358057	5
1784	68311059	3600.087116358057	6
1784	69245395	3660.087116358057	2
1789	68406141	3604.129512080085	2
1789	69331834	3667.071452671336	9
1788	68406141	3604.129512080085	2
1788	69331834	3667.071452671336	3
1763	67544563	3563.093700040551	17
1763	68730695	3620.131958404097	4
1763	69482602	3683.093700040551	11
1762	67544563	3563.093700040551	1
1762	68730695	3620.131958404097	4
1762	69482602	3683.093700040551	3
1729	65800045	3485.017784577841	25
1729	67123908	3545.017784577841	15
1729	68421814	3605.017784577841	20
1729	69306115	3665.017784577841	19
1728	65800045	3485.017784577841	3
1728	67123908	3545.017784577841	0
1728	68421814	3605.017784577841	4
1728	69306115	3665.017784577841	6
1717	65421311	3474.078696486051	10
1717	66916564	3534.078696486051	7
1717	68191976	3594.078696486051	14
1717	69171248	3654.078696486051	3
1716	65421311	3474.078696486051	5
1716	66916564	3534.078696486051	3
1716	68191976	3594.078696486051	2
1716	69171248	3654.078696486051	0
1793	68634168	3615.033995559416	16
1793	69415633	3675.033995559416	12
1792	68634168	3615.033995559416	4
1792	69415633	3675.033995559416	1
1783	68208244	3595.043322246755	12
1783	69181114	3655.043322246755	20
1783	69666770	3715.043322246755	9
1782	68208244	3595.043322246755	0
1782	69181114	3655.043322246755	3
1782	69666770	3715.043322246755	0
1743	66496959	3514.092847275408	5
1743	67798133	3574.092847275408	15
1743	68940329	3634.092847275408	5
1743	69534588	3691.147231825742	3
1742	66496959	3514.092847275408	3
1742	67798133	3574.092847275408	6
1742	68940329	3634.092847275408	2
1742	69534588	3691.147231825742	3
1693	64297957	3436.051699526375	23
1693	66123529	3496.051699526375	22
1693	67377080	3556.051699526375	15
1693	68654094	3616.051699526375	17
1693	69425370	3676.051699526375	20
1693	69728204	3736.051699526375	11
1692	64297957	3436.051699526375	8
1692	66123529	3496.051699526375	6
1692	67377080	3556.051699526375	2
1692	68654094	3616.051699526375	3
1692	69425370	3676.051699526375	4
1692	69728204	3736.051699526375	0
1765	67663601	3568.073745182762	9
1765	68859190	3628.073745182762	12
1765	69517723	3688.073745182762	12
1765	69766041	3748.073745182762	3
1764	67663601	3568.073745182762	2
1764	68859190	3628.073745182762	0
1764	69517723	3688.073745182762	4
1764	69766041	3748.073745182762	2
1755	67069025	3542.090081110853	10
1755	68353393	3602.090081110853	17
1755	69269801	3662.090081110853	6
1754	67069025	3542.090081110853	7
1754	68353393	3602.090081110853	2
1754	69269801	3662.090081110853	3
1787	68356868	3602.143017982972	1
1787	69308218	3665.082654542942	17
1786	68356868	3602.143017982972	1
1786	69308218	3665.082654542942	5
1795	68826964	3626.054395909677	10
1795	69504309	3686.054395909677	9
1795	69749070	3743.152954641127	1
1794	68826964	3626.054395909677	3
1794	69504309	3686.054395909677	2
1794	69749070	3743.152954641127	1
1675	63287951	3406.072934070835	11
1675	65155980	3466.072934070835	13
1675	66762654	3526.072934070835	12
1675	68040447	3586.072934070835	15
1675	69083837	3646.072934070835	17
1675	69626216	3706.072934070835	6
1674	63287951	3406.072934070835	5
1674	65155980	3466.072934070835	6
1674	66762654	3526.072934070835	3
1674	68040447	3586.072934070835	2
1674	69083837	3646.072934070835	2
1674	69626216	3706.072934070835	2
1713	65254482	3469.022115665278	15
1713	66823568	3529.022115665278	19
1713	68092382	3589.022115665278	15
1713	69113352	3649.022115665278	15
1713	69641276	3709.022115665278	10
1713	69831094	3769.022115665278	6
1712	65254482	3469.022115665278	3
1712	66823568	3529.022115665278	4
1712	68092382	3589.022115665278	1
1712	69113352	3649.022115665278	4
1712	69641276	3709.022115665278	1
1712	69831094	3769.022115665278	0
1723	65677303	3481.080544568924	22
1723	67051041	3541.080544568924	6
1723	68329011	3601.080544568924	21
1723	69257244	3661.080544568924	13
1723	69686151	3721.080544568924	9
1723	69851607	3781.080544568924	6
1722	65677303	3481.080544568924	9
1722	67051041	3541.080544568924	3
1722	68329011	3601.080544568924	5
1722	69257244	3661.080544568924	7
1722	69686151	3721.080544568924	1
1722	69851607	3781.080544568924	0
1771	67999750	3584.037847829121	8
1771	69060993	3644.037847829121	9
1771	69614690	3704.037847829121	2
1770	67999750	3584.037847829121	3
1770	69060993	3644.037847829121	0
1770	69614690	3704.037847829121	1
1707	64395297	3439.014637307357	19
1707	66183921	3499.014637307357	17
1707	67446774	3559.014637307357	15
1707	68706651	3619.014637307357	24
1707	69450061	3679.014637307357	12
1707	69872258	3796.097963504632	1
1706	64395297	3439.014637307357	6
1706	66183921	3499.014637307357	3
1706	67446774	3559.014637307357	1
1706	68706651	3619.014637307357	3
1706	69450061	3679.014637307357	2
1706	69872258	3796.097963504632	1
1761	67523551	3562.084379299008	9
1761	68764987	3622.084379299008	18
1761	69475508	3682.084379299008	10
1761	69745722	3742.084379299008	8
1761	69878035	3802.084379299008	4
1760	67523551	3562.084379299008	1
1760	68764987	3622.084379299008	5
1760	69475508	3682.084379299008	0
1760	69745722	3742.084379299008	0
1760	69878035	3802.084379299008	0
1781	68111531	3590.066931851557	22
1781	69124616	3650.066931851557	15
1781	69646495	3710.066931851557	9
1781	69833469	3770.066931851557	3
1781	69896938	3830.066931851557	2
1780	68111531	3590.066931851557	1
1780	69124616	3650.066931851557	0
1780	69646495	3710.066931851557	1
1780	69833469	3770.066931851557	1
1780	69896938	3830.066931851557	1
1689	63904461	3425.004323179717	22
1689	65798699	3485.004323179717	21
1689	67123014	3545.004323179717	13
1689	68421235	3605.004323179717	28
1689	69305631	3665.004323179717	9
1689	69697873	3725.004323179717	2
1689	69909334	3845.004323179717	3
1688	63904461	3425.004323179717	3
1688	65798699	3485.004323179717	0
1688	67123014	3545.004323179717	0
1688	68421235	3605.004323179717	4
1688	69305631	3665.004323179717	0
1688	69697873	3725.004323179717	1
1688	69909334	3845.004323179717	1
1745	66655890	3521.074639088963	3
1745	67938499	3581.074639088963	13
1745	69025969	3641.074639088963	17
1745	69599477	3701.074639088963	15
1745	69815735	3761.074639088963	8
1745	69888726	3818.074998785787	1
1744	66655890	3521.074639088963	1
1744	67938499	3581.074639088963	4
1744	69025969	3641.074639088963	4
1744	69599477	3701.074639088963	4
1744	69815735	3761.074639088963	2
1744	69888726	3818.074998785787	1
1751	66949243	3536.008056794968	5
1751	68223248	3596.008056794968	25
1751	69191335	3656.008056794968	15
1751	69669786	3716.008056794968	10
1751	69844366	3776.008056794968	6
1751	69898910	3833.008426649636	1
1750	66949243	3536.008056794968	1
1750	68223248	3596.008056794968	5
1750	69191335	3656.008056794968	5
1750	69669786	3716.008056794968	2
1750	69844366	3776.008056794968	1
1750	69898910	3833.008426649636	1
1749	66882426	3532.079451744119	4
1749	68154337	3592.079451744119	13
1749	69147628	3652.079451744119	15
1749	69655638	3712.079451744119	10
1749	69837004	3772.079451744119	8
1749	69898285	3832.079451744119	4
1748	66882426	3532.079451744119	0
1748	68154337	3592.079451744119	3
1748	69147628	3652.079451744119	1
1748	69655638	3712.079451744119	3
1748	69837004	3772.079451744119	0
1748	69898285	3832.079451744119	0
1797	68926740	3633.071883362159	17
1797	69548032	3693.071883362159	10
1797	69786207	3753.071883362159	5
1797	69885462	3813.071883362159	4
1797	69926169	3873.071883362159	2
1796	68926740	3633.071883362159	2
1796	69548032	3693.071883362159	0
1796	69786207	3753.071883362159	1
1796	69885462	3813.071883362159	1
1796	69926169	3873.071883362159	0

