version 2
run Obstacles-2-20191117-12:27:55-19092
attr configname Obstacles
attr datetime 20191117-12:27:55
attr experiment Obstacles
attr inifile omnetpp.ini
attr iterationvars $0=80
attr iterationvarsf 80-
attr measurement $0=80
attr network artery.veins.World
attr processid 19092
attr repetition 0
attr replication #0
attr resultdir results
attr runnumber 2
attr seedset 2
param *.traci.launcher.sumocfg "\"Obstacles/run.sumo.cfg\""
param *.withObstacles true
param *.obstacles.obstacles "xmldoc(\"config_obstacles.xml\", \"//AnalogueModel[@type='SimpleObstacleShadowing']/obstacles\")"
param *.node[*].nic.mac1609_4.txPower 20mW
param *.node[*].nic.phy80211p.decider "xmldoc(\"config_obstacles.xml\")"
param *.node[*].nic.phy80211p.analogueModels "xmldoc(\"config_obstacles.xml\")"
param *.node[*].applType "\"artery.veins.ApplicationLayer\""
param *.node[*].appl.middleware.updateInterval 0.1s
param *.node[*].appl.middleware.datetime "\"2013-06-01 12:35:00\""
param *.node[*].appl.middleware.services "xmldoc(\"services.xml\")"
param *.node[*].appl.middleware.ExampleService.DecisionLogic 80
param *.node[*].appl.middleware.ExampleService.NeighboringWindow 60
param *.traci.core.version -1
param *.traci.launcher.typename "\"PosixLauncher\""
param *.playgroundSizeX 4000m
param *.playgroundSizeY 4000m
param *.playgroundSizeZ 50m
param *.connectionManager.maxInterfDist 1500m
param *.connectionManager.sendDirect true
param *.connectionManager.coreDebug false

vector 0 World.node[5].appl.middleware.ExampleService proof_size ETV
vector 1 World.node[5].appl.middleware.ExampleService proof_requested ETV
vector 2 World.node[9].appl.middleware.ExampleService proof_size ETV
vector 3 World.node[9].appl.middleware.ExampleService proof_requested ETV
vector 4 World.node[1].appl.middleware.ExampleService proof_size ETV
vector 5 World.node[1].appl.middleware.ExampleService proof_requested ETV
vector 6 World.node[7].appl.middleware.ExampleService proof_size ETV
vector 7 World.node[7].appl.middleware.ExampleService proof_requested ETV
vector 8 World.node[13].appl.middleware.ExampleService proof_size ETV
vector 9 World.node[13].appl.middleware.ExampleService proof_requested ETV
3	21981	42.003095690371	2
2	21981	42.003095690371	0
vector 10 World.node[0].appl.middleware.ExampleService proof_size ETV
vector 11 World.node[0].appl.middleware.ExampleService proof_requested ETV
vector 12 World.node[4].appl.middleware.ExampleService proof_size ETV
vector 13 World.node[4].appl.middleware.ExampleService proof_requested ETV
vector 14 World.node[19].appl.middleware.ExampleService proof_size ETV
vector 15 World.node[19].appl.middleware.ExampleService proof_requested ETV
vector 16 World.node[20].appl.middleware.ExampleService proof_size ETV
vector 17 World.node[20].appl.middleware.ExampleService proof_requested ETV
vector 18 World.node[11].appl.middleware.ExampleService proof_size ETV
vector 19 World.node[11].appl.middleware.ExampleService proof_requested ETV
vector 20 World.node[8].appl.middleware.ExampleService proof_size ETV
vector 21 World.node[8].appl.middleware.ExampleService proof_requested ETV
vector 22 World.node[17].appl.middleware.ExampleService proof_size ETV
vector 23 World.node[17].appl.middleware.ExampleService proof_requested ETV
vector 24 World.node[22].appl.middleware.ExampleService proof_size ETV
vector 25 World.node[22].appl.middleware.ExampleService proof_requested ETV
vector 26 World.node[6].appl.middleware.ExampleService proof_size ETV
vector 27 World.node[6].appl.middleware.ExampleService proof_requested ETV
vector 28 World.node[12].appl.middleware.ExampleService proof_size ETV
vector 29 World.node[12].appl.middleware.ExampleService proof_requested ETV
vector 30 World.node[14].appl.middleware.ExampleService proof_size ETV
vector 31 World.node[14].appl.middleware.ExampleService proof_requested ETV
11	89175	74.097268435382	3
10	89175	74.097268435382	1
vector 32 World.node[15].appl.middleware.ExampleService proof_size ETV
vector 33 World.node[15].appl.middleware.ExampleService proof_requested ETV
vector 34 World.node[23].appl.middleware.ExampleService proof_size ETV
vector 35 World.node[23].appl.middleware.ExampleService proof_requested ETV
5	40375	53.000515914988	2
4	40375	53.000515914988	0
vector 36 World.node[18].appl.middleware.ExampleService proof_size ETV
vector 37 World.node[18].appl.middleware.ExampleService proof_requested ETV
vector 38 World.node[16].appl.middleware.ExampleService proof_size ETV
vector 39 World.node[16].appl.middleware.ExampleService proof_requested ETV
vector 40 World.node[29].appl.middleware.ExampleService proof_size ETV
vector 41 World.node[29].appl.middleware.ExampleService proof_requested ETV
vector 42 World.node[25].appl.middleware.ExampleService proof_size ETV
vector 43 World.node[25].appl.middleware.ExampleService proof_requested ETV
vector 44 World.node[30].appl.middleware.ExampleService proof_size ETV
vector 45 World.node[30].appl.middleware.ExampleService proof_requested ETV
vector 46 World.node[10].appl.middleware.ExampleService proof_size ETV
vector 47 World.node[10].appl.middleware.ExampleService proof_requested ETV
vector 48 World.node[32].appl.middleware.ExampleService proof_size ETV
vector 49 World.node[32].appl.middleware.ExampleService proof_requested ETV
vector 50 World.node[27].appl.middleware.ExampleService proof_size ETV
vector 51 World.node[27].appl.middleware.ExampleService proof_requested ETV
27	186965	99.113683927119	1
26	186965	99.113683927119	1
15	97582	77.023269271548	4
15	431493	137.023269271548	6
14	97582	77.023269271548	3
14	431493	137.023269271548	4
25	185918	99.033851185068	7
24	185918	99.033851185068	4
vector 52 World.node[24].appl.middleware.ExampleService proof_size ETV
vector 53 World.node[24].appl.middleware.ExampleService proof_requested ETV
9	58630	61.105251239487	1
9	330162	124.047405621968	6
8	58630	61.105251239487	1
8	330162	124.047405621968	3
vector 54 World.node[31].appl.middleware.ExampleService proof_size ETV
vector 55 World.node[31].appl.middleware.ExampleService proof_requested ETV
vector 56 World.node[26].appl.middleware.ExampleService proof_size ETV
vector 57 World.node[26].appl.middleware.ExampleService proof_requested ETV
vector 58 World.node[38].appl.middleware.ExampleService proof_size ETV
vector 59 World.node[38].appl.middleware.ExampleService proof_requested ETV
21	149153	91.064900773508	3
21	567034	151.064900773508	7
20	149153	91.064900773508	1
20	567034	151.064900773508	3
vector 60 World.node[40].appl.middleware.ExampleService proof_size ETV
vector 61 World.node[40].appl.middleware.ExampleService proof_requested ETV
vector 62 World.node[42].appl.middleware.ExampleService proof_size ETV
vector 63 World.node[42].appl.middleware.ExampleService proof_requested ETV
vector 64 World.node[37].appl.middleware.ExampleService proof_size ETV
vector 65 World.node[37].appl.middleware.ExampleService proof_requested ETV
vector 66 World.node[41].appl.middleware.ExampleService proof_size ETV
vector 67 World.node[41].appl.middleware.ExampleService proof_requested ETV
33	227508	107.045138744102	6
33	714918	167.045138744102	6
32	227508	107.045138744102	3
32	714918	167.045138744102	5
39	331043	124.090237639262	12
38	331043	124.090237639262	9
61	764547	172.047608138877	10
60	764547	172.047608138877	2
vector 68 World.node[33].appl.middleware.ExampleService proof_size ETV
vector 69 World.node[33].appl.middleware.ExampleService proof_requested ETV
vector 70 World.node[43].appl.middleware.ExampleService proof_size ETV
vector 71 World.node[43].appl.middleware.ExampleService proof_requested ETV
31	217178	105.077080843225	6
31	698211	165.077080843225	6
30	217178	105.077080843225	4
30	698211	165.077080843225	3
vector 72 World.node[39].appl.middleware.ExampleService proof_size ETV
vector 73 World.node[39].appl.middleware.ExampleService proof_requested ETV
vector 74 World.node[34].appl.middleware.ExampleService proof_size ETV
vector 75 World.node[34].appl.middleware.ExampleService proof_requested ETV
vector 76 World.node[45].appl.middleware.ExampleService proof_size ETV
vector 77 World.node[45].appl.middleware.ExampleService proof_requested ETV
vector 78 World.node[36].appl.middleware.ExampleService proof_size ETV
vector 79 World.node[36].appl.middleware.ExampleService proof_requested ETV
47	424910	136.016664435924	5
46	424910	136.016664435924	3
7	42834	54.007262038827	1
7	279843	117.006896943413	3
7	809956	177.006896943413	11
6	42834	54.007262038827	1
6	279843	117.006896943413	0
6	809956	177.006896943413	2
45	368138	129.08355820037	5
45	952504	189.08355820037	14
44	368138	129.08355820037	4
44	952504	189.08355820037	5
vector 80 World.node[28].appl.middleware.ExampleService proof_size ETV
vector 81 World.node[28].appl.middleware.ExampleService proof_requested ETV
vector 82 World.node[44].appl.middleware.ExampleService proof_size ETV
vector 83 World.node[44].appl.middleware.ExampleService proof_requested ETV
vector 84 World.node[48].appl.middleware.ExampleService proof_size ETV
vector 85 World.node[48].appl.middleware.ExampleService proof_requested ETV
vector 86 World.node[47].appl.middleware.ExampleService proof_size ETV
vector 87 World.node[47].appl.middleware.ExampleService proof_requested ETV
vector 88 World.node[57].appl.middleware.ExampleService proof_size ETV
vector 89 World.node[57].appl.middleware.ExampleService proof_requested ETV
51	489837	143.070009051659	3
51	1111347	203.070009051659	14
50	489837	143.070009051659	2
50	1111347	203.070009051659	4
69	929582	187.034951295587	13
68	929582	187.034951295587	6
vector 90 World.node[53].appl.middleware.ExampleService proof_size ETV
vector 91 World.node[53].appl.middleware.ExampleService proof_requested ETV
vector 92 World.node[50].appl.middleware.ExampleService proof_size ETV
vector 93 World.node[50].appl.middleware.ExampleService proof_requested ETV
55	677701	163.011226956593	8
55	1348415	223.011226956593	2
54	677701	163.011226956593	0
54	1348415	223.011226956593	1
53	612465	156.098761472618	7
53	1258351	216.098761472618	3
52	612465	156.098761472618	1
52	1258351	216.098761472618	1
vector 94 World.node[46].appl.middleware.ExampleService proof_size ETV
vector 95 World.node[46].appl.middleware.ExampleService proof_requested ETV
29	194771	101.043744935398	6
29	657259	161.043744935398	8
29	1320405	221.043744935398	4
28	194771	101.043744935398	2
28	657259	161.043744935398	2
28	1320405	221.043744935398	2
vector 96 World.node[52].appl.middleware.ExampleService proof_size ETV
vector 97 World.node[52].appl.middleware.ExampleService proof_requested ETV
91	1506216	234.103858559219	2
90	1506216	234.103858559219	2
vector 98 World.node[58].appl.middleware.ExampleService proof_size ETV
vector 99 World.node[58].appl.middleware.ExampleService proof_requested ETV
57	687408	164.086679066834	10
57	1362795	224.086679066834	10
56	687408	164.086679066834	4
56	1362795	224.086679066834	4
vector 100 World.node[49].appl.middleware.ExampleService proof_size ETV
vector 101 World.node[49].appl.middleware.ExampleService proof_requested ETV
59	696985	165.035104158893	2
59	1374344	225.035104158893	11
58	696985	165.035104158893	1
58	1374344	225.035104158893	4
vector 102 World.node[62].appl.middleware.ExampleService proof_size ETV
vector 103 World.node[62].appl.middleware.ExampleService proof_requested ETV
vector 104 World.node[55].appl.middleware.ExampleService proof_size ETV
vector 105 World.node[55].appl.middleware.ExampleService proof_requested ETV
vector 106 World.node[54].appl.middleware.ExampleService proof_size ETV
vector 107 World.node[54].appl.middleware.ExampleService proof_requested ETV
vector 108 World.node[51].appl.middleware.ExampleService proof_size ETV
vector 109 World.node[51].appl.middleware.ExampleService proof_requested ETV
107	1958900	267.038390827784	16
106	1958900	267.038390827784	10
17	112998	81.088511106977	4
17	472206	141.088511106977	11
17	1089958	201.088511106977	6
17	1881804	261.088511106977	11
16	112998	81.088511106977	2
16	472206	141.088511106977	8
16	1089958	201.088511106977	1
16	1881804	261.088511106977	3
vector 110 World.node[56].appl.middleware.ExampleService proof_size ETV
vector 111 World.node[56].appl.middleware.ExampleService proof_requested ETV
13	95293	76.036365034967	2
13	402285	133.197359843255	4
13	1031527	196.036365034967	3
12	95293	76.036365034967	0
12	402285	133.197359843255	4
12	1031527	196.036365034967	2
79	1008227	194.023617908731	12
79	1745787	251.085646922285	1
78	1008227	194.023617908731	2
78	1745787	251.085646922285	1
vector 112 World.node[60].appl.middleware.ExampleService proof_size ETV
vector 113 World.node[60].appl.middleware.ExampleService proof_requested ETV
vector 114 World.node[59].appl.middleware.ExampleService proof_size ETV
vector 115 World.node[59].appl.middleware.ExampleService proof_requested ETV
43	360192	128.105247215546	3
43	975830	191.050911739818	10
43	1744185	251.050911739818	11
42	360192	128.105247215546	3
42	975830	191.050911739818	4
42	1744185	251.050911739818	4
19	140868	89.058549350942	5
19	548578	149.058549350942	5
19	1176957	209.058549350942	5
19	1980362	269.058549350942	9
18	140868	89.058549350942	1
18	548578	149.058549350942	2
18	1176957	209.058549350942	1
18	1980362	269.058549350942	1
37	249759	111.002406406053	4
37	753900	171.002406406053	9
37	1458948	231.002406406053	10
36	249759	111.002406406053	2
36	753900	171.002406406053	3
36	1458948	231.002406406053	9
vector 116 World.node[69].appl.middleware.ExampleService proof_size ETV
vector 117 World.node[69].appl.middleware.ExampleService proof_requested ETV
81	1240635	215.00965135023	5
81	2073634	275.00965135023	16
80	1240635	215.00965135023	3
80	2073634	275.00965135023	3
vector 118 World.node[61].appl.middleware.ExampleService proof_size ETV
vector 119 World.node[61].appl.middleware.ExampleService proof_requested ETV
111	2039074	273.039032523497	10
110	2039074	273.039032523497	2
1	13892	35.083312176176	1
1	167457	95.125012448782	4
1	631089	158.082941794838	9
1	1283823	218.082941794838	5
1	2122214	278.082941794838	7
0	13892	35.083312176176	1
0	167457	95.125012448782	4
0	631089	158.082941794838	4
0	1283823	218.082941794838	4
0	2122214	278.082941794838	2
vector 120 World.node[64].appl.middleware.ExampleService proof_size ETV
vector 121 World.node[64].appl.middleware.ExampleService proof_requested ETV
vector 122 World.node[71].appl.middleware.ExampleService proof_size ETV
vector 123 World.node[71].appl.middleware.ExampleService proof_requested ETV
vector 124 World.node[73].appl.middleware.ExampleService proof_size ETV
vector 125 World.node[73].appl.middleware.ExampleService proof_requested ETV
73	999146	193.027420209697	8
73	1771186	253.027420209697	12
73	2540633	310.14443719435	2
72	999146	193.027420209697	3
72	1771186	253.027420209697	4
72	2540633	310.14443719435	2
vector 126 World.node[65].appl.middleware.ExampleService proof_size ETV
vector 127 World.node[65].appl.middleware.ExampleService proof_requested ETV
vector 128 World.node[70].appl.middleware.ExampleService proof_size ETV
vector 129 World.node[70].appl.middleware.ExampleService proof_requested ETV
89	1403621	227.10385151752	1
89	2271401	290.039932248928	15
88	1403621	227.10385151752	1
88	2271401	290.039932248928	4
49	471304	141.062692317646	6
49	1089122	201.062692317646	9
49	1880150	261.062692317646	11
49	2693615	321.062692317646	8
48	471304	141.062692317646	2
48	1089122	201.062692317646	1
48	1880150	261.062692317646	2
48	2693615	321.062692317646	1
vector 130 World.node[77].appl.middleware.ExampleService proof_size ETV
vector 131 World.node[77].appl.middleware.ExampleService proof_requested ETV
35	227823	107.053571415576	4
35	715249	167.053571415576	9
35	1401572	227.053571415576	5
35	2233553	287.053571415576	6
34	227823	107.053571415576	3
34	715249	167.053571415576	4
34	1401572	227.053571415576	0
34	2233553	287.053571415576	1
vector 132 World.node[66].appl.middleware.ExampleService proof_size ETV
vector 133 World.node[66].appl.middleware.ExampleService proof_requested ETV
vector 134 World.node[72].appl.middleware.ExampleService proof_size ETV
vector 135 World.node[72].appl.middleware.ExampleService proof_requested ETV
vector 136 World.node[82].appl.middleware.ExampleService proof_size ETV
vector 137 World.node[82].appl.middleware.ExampleService proof_requested ETV
97	1615586	242.061980327638	6
97	2427773	302.061980327638	6
96	1615586	242.061980327638	1
96	2427773	302.061980327638	4
65	819211	178.000153582077	7
65	1562606	238.000153582077	7
65	2380247	298.000153582077	6
64	819211	178.000153582077	1
64	1562606	238.000153582077	2
64	2380247	298.000153582077	1
71	966270	190.092615324374	1
71	1770822	253.023007125617	12
71	2577290	313.023007125617	8
70	966270	190.092615324374	1
70	1770822	253.023007125617	7
70	2577290	313.023007125617	6
vector 138 World.node[75].appl.middleware.ExampleService proof_size ETV
vector 139 World.node[75].appl.middleware.ExampleService proof_requested ETV
99	1686485	247.085221620812	10
99	2498413	307.085221620812	8
98	1686485	247.085221620812	6
98	2498413	307.085221620812	5
vector 140 World.node[76].appl.middleware.ExampleService proof_size ETV
vector 141 World.node[76].appl.middleware.ExampleService proof_requested ETV
23	174153	96.22385095227	2
23	640289	159.052039375273	16
23	1296325	219.052039375273	14
23	2134531	279.052039375273	9
23	2995616	339.052039375273	9
22	174153	96.22385095227	2
22	640289	159.052039375273	6
22	1296325	219.052039375273	5
22	2134531	279.052039375273	2
22	2995616	339.052039375273	6
115	2111097	277.097992468509	11
115	2963602	337.097992468509	9
114	2111097	277.097992468509	7
114	2963602	337.097992468509	3
87	1388497	226.02948342904	5
87	2221285	286.02948342904	12
87	3117432	346.02948342904	8
86	1388497	226.02948342904	2
86	2221285	286.02948342904	5
86	3117432	346.02948342904	4
vector 142 World.node[87].appl.middleware.ExampleService proof_size ETV
vector 143 World.node[87].appl.middleware.ExampleService proof_requested ETV
vector 144 World.node[86].appl.middleware.ExampleService proof_size ETV
vector 145 World.node[86].appl.middleware.ExampleService proof_requested ETV
vector 146 World.node[78].appl.middleware.ExampleService proof_size ETV
vector 147 World.node[78].appl.middleware.ExampleService proof_requested ETV
101	1771048	253.026831928664	11
101	2577561	313.026831928664	9
100	1771048	253.026831928664	2
100	2577561	313.026831928664	2
vector 148 World.node[88].appl.middleware.ExampleService proof_size ETV
vector 149 World.node[88].appl.middleware.ExampleService proof_requested ETV
vector 150 World.node[80].appl.middleware.ExampleService proof_size ETV
vector 151 World.node[80].appl.middleware.ExampleService proof_requested ETV
105	1947816	266.06821101082	11
105	2773724	326.06821101082	12
104	1947816	266.06821101082	2
104	2773724	326.06821101082	5
vector 152 World.node[89].appl.middleware.ExampleService proof_size ETV
vector 153 World.node[89].appl.middleware.ExampleService proof_requested ETV
vector 154 World.node[95].appl.middleware.ExampleService proof_size ETV
vector 155 World.node[95].appl.middleware.ExampleService proof_requested ETV
67	905009	185.169765518459	2
67	1699470	248.085845013103	10
67	2509036	308.085845013103	6
67	3491298	368.085845013103	7
66	905009	185.169765518459	2
66	1699470	248.085845013103	6
66	2509036	308.085845013103	0
66	3491298	368.085845013103	3
vector 156 World.node[85].appl.middleware.ExampleService proof_size ETV
vector 157 World.node[85].appl.middleware.ExampleService proof_requested ETV
vector 158 World.node[81].appl.middleware.ExampleService proof_size ETV
vector 159 World.node[81].appl.middleware.ExampleService proof_requested ETV
75	1000071	193.068291794159	13
75	1772747	253.068291794159	11
75	2578941	313.068291794159	11
75	3584718	373.068291794159	9
74	1000071	193.068291794159	4
74	1772747	253.068291794159	2
74	2578941	313.068291794159	4
74	3584718	373.068291794159	2
113	2108306	277.045017257985	9
113	2960494	337.045017257985	15
112	2108306	277.045017257985	2
112	2960494	337.045017257985	2
63	811169	177.072506393446	13
63	1549900	237.072506393446	8
63	2367945	297.072506393446	3
63	3301671	357.072506393446	11
62	811169	177.072506393446	5
62	1549900	237.072506393446	5
62	2367945	297.072506393446	2
62	3301671	357.072506393446	3
vector 160 World.node[98].appl.middleware.ExampleService proof_size ETV
vector 161 World.node[98].appl.middleware.ExampleService proof_requested ETV
vector 162 World.node[90].appl.middleware.ExampleService proof_size ETV
vector 163 World.node[90].appl.middleware.ExampleService proof_requested ETV
vector 164 World.node[84].appl.middleware.ExampleService proof_size ETV
vector 165 World.node[84].appl.middleware.ExampleService proof_requested ETV
vector 166 World.node[74].appl.middleware.ExampleService proof_size ETV
vector 167 World.node[74].appl.middleware.ExampleService proof_requested ETV
135	3174124	349.065787167451	17
134	3174124	349.065787167451	4
41	336480	125.097492688079	7
41	903864	185.097492688079	13
41	1657281	245.097492688079	9
41	2469466	305.097492688079	4
41	3435670	365.097492688079	10
40	336480	125.097492688079	0
40	903864	185.097492688079	2
40	1657281	245.097492688079	4
40	2469466	305.097492688079	1
40	3435670	365.097492688079	1
vector 168 World.node[101].appl.middleware.ExampleService proof_size ETV
vector 169 World.node[101].appl.middleware.ExampleService proof_requested ETV
vector 170 World.node[97].appl.middleware.ExampleService proof_size ETV
vector 171 World.node[97].appl.middleware.ExampleService proof_requested ETV
vector 172 World.node[96].appl.middleware.ExampleService proof_size ETV
vector 173 World.node[96].appl.middleware.ExampleService proof_requested ETV
vector 174 World.node[94].appl.middleware.ExampleService proof_size ETV
vector 175 World.node[94].appl.middleware.ExampleService proof_requested ETV
vector 176 World.node[99].appl.middleware.ExampleService proof_size ETV
vector 177 World.node[99].appl.middleware.ExampleService proof_requested ETV
95	1592046	240.057829138217	7
95	2405135	300.057829138217	11
95	3345836	360.057829138217	16
94	1592046	240.057829138217	5
94	2405135	300.057829138217	3
94	3345836	360.057829138217	3
vector 178 World.node[93].appl.middleware.ExampleService proof_size ETV
vector 179 World.node[93].appl.middleware.ExampleService proof_requested ETV
109	1959299	267.052548961528	13
109	2790330	327.052548961528	11
109	3839836	387.052548961528	18
108	1959299	267.052548961528	5
108	2790330	327.052548961528	2
108	3839836	387.052548961528	5
vector 180 World.node[103].appl.middleware.ExampleService proof_size ETV
vector 181 World.node[103].appl.middleware.ExampleService proof_requested ETV
vector 182 World.node[91].appl.middleware.ExampleService proof_size ETV
vector 183 World.node[91].appl.middleware.ExampleService proof_requested ETV
vector 184 World.node[83].appl.middleware.ExampleService proof_size ETV
vector 185 World.node[83].appl.middleware.ExampleService proof_requested ETV
159	3690700	379.025691694813	4
158	3690700	379.025691694813	0
vector 186 World.node[102].appl.middleware.ExampleService proof_size ETV
vector 187 World.node[102].appl.middleware.ExampleService proof_requested ETV
vector 188 World.node[106].appl.middleware.ExampleService proof_size ETV
vector 189 World.node[106].appl.middleware.ExampleService proof_requested ETV
vector 190 World.node[92].appl.middleware.ExampleService proof_size ETV
vector 191 World.node[92].appl.middleware.ExampleService proof_requested ETV
147	3417107	364.088226176845	15
146	3417107	364.088226176845	7
vector 192 World.node[104].appl.middleware.ExampleService proof_size ETV
vector 193 World.node[104].appl.middleware.ExampleService proof_requested ETV
vector 194 World.node[100].appl.middleware.ExampleService proof_size ETV
vector 195 World.node[100].appl.middleware.ExampleService proof_requested ETV
83	1240754	215.025539384712	9
83	2074019	275.025539384712	19
83	2918813	335.025539384712	10
83	3936530	392.143644805219	5
82	1240754	215.025539384712	0
82	2074019	275.025539384712	11
82	2918813	335.025539384712	7
82	3936530	392.143644805219	5
127	2664991	319.013252357254	10
127	3690386	379.013252357254	5
126	2664991	319.013252357254	3
126	3690386	379.013252357254	2
vector 196 World.node[110].appl.middleware.ExampleService proof_size ETV
vector 197 World.node[110].appl.middleware.ExampleService proof_requested ETV
133	3157413	348.094224512996	11
133	4245287	408.094224512996	14
132	3157413	348.094224512996	3
132	4245287	408.094224512996	0
vector 198 World.node[115].appl.middleware.ExampleService proof_size ETV
vector 199 World.node[115].appl.middleware.ExampleService proof_requested ETV
vector 200 World.node[112].appl.middleware.ExampleService proof_size ETV
vector 201 World.node[112].appl.middleware.ExampleService proof_requested ETV
vector 202 World.node[105].appl.middleware.ExampleService proof_size ETV
vector 203 World.node[105].appl.middleware.ExampleService proof_requested ETV
119	2271062	290.029487629235	4
119	3186959	350.029487629235	10
119	4282699	410.029487629235	20
118	2271062	290.029487629235	2
118	3186959	350.029487629235	4
118	4282699	410.029487629235	8
167	3899082	390.0736538884	18
166	3899082	390.0736538884	9
vector 204 World.node[111].appl.middleware.ExampleService proof_size ETV
vector 205 World.node[111].appl.middleware.ExampleService proof_requested ETV
193	4556438	423.076683521993	20
192	4556438	423.076683521993	3
141	3273697	355.092846567137	11
141	4395017	415.092846567137	11
140	3273697	355.092846567137	1
140	4395017	415.092846567137	4
vector 206 World.node[116].appl.middleware.ExampleService proof_size ETV
vector 207 World.node[116].appl.middleware.ExampleService proof_requested ETV
139	3255780	354.038896823814	11
139	4372213	414.038896823814	12
138	3255780	354.038896823814	7
138	4372213	414.038896823814	6
vector 208 World.node[108].appl.middleware.ExampleService proof_size ETV
vector 209 World.node[108].appl.middleware.ExampleService proof_requested ETV
121	2418597	301.095941904024	12
121	3363247	361.095941904024	10
121	4517938	421.095941904024	10
120	2418597	301.095941904024	7
120	3363247	361.095941904024	3
120	4517938	421.095941904024	4
123	2467212	305.033324833889	8
123	3431330	365.033324833889	10
123	4591794	425.033324833889	12
122	2467212	305.033324833889	2
122	3431330	365.033324833889	2
122	4591794	425.033324833889	2
vector 210 World.node[118].appl.middleware.ExampleService proof_size ETV
vector 211 World.node[118].appl.middleware.ExampleService proof_requested ETV
157	3676992	378.14769308138	1
157	4955593	441.087323148013	16
156	3676992	378.14769308138	1
156	4955593	441.087323148013	4
vector 212 World.node[109].appl.middleware.ExampleService proof_size ETV
vector 213 World.node[109].appl.middleware.ExampleService proof_requested ETV
117	2189960	283.124325071555	5
117	3065698	343.024325071555	9
117	4099229	400.143646413016	7
117	5429023	460.129011297362	3
116	2189960	283.124325071555	0
116	3065698	343.024325071555	5
116	4099229	400.143646413016	7
116	5429023	460.129011297362	3
85	1296922	219.067932416638	6
85	2135393	279.067932416638	14
85	2996467	339.067932416638	9
85	4073771	399.067932416638	11
85	5398160	459.067932416638	14
84	1296922	219.067932416638	5
84	2135393	279.067932416638	5
84	2996467	339.067932416638	2
84	4073771	399.067932416638	4
84	5398160	459.067932416638	4
vector 214 World.node[107].appl.middleware.ExampleService proof_size ETV
vector 215 World.node[107].appl.middleware.ExampleService proof_requested ETV
vector 216 World.node[117].appl.middleware.ExampleService proof_size ETV
vector 217 World.node[117].appl.middleware.ExampleService proof_requested ETV
vector 218 World.node[114].appl.middleware.ExampleService proof_size ETV
vector 219 World.node[114].appl.middleware.ExampleService proof_requested ETV
185	4345927	413.010102665867	19
185	5719259	473.010102665867	2
184	4345927	413.010102665867	4
184	5719259	473.010102665867	1
175	4131113	402.081910010357	20
175	5475881	462.081910010357	11
174	4131113	402.081910010357	7
174	5475881	462.081910010357	8
vector 220 World.node[119].appl.middleware.ExampleService proof_size ETV
vector 221 World.node[119].appl.middleware.ExampleService proof_requested ETV
vector 222 World.node[122].appl.middleware.ExampleService proof_size ETV
vector 223 World.node[122].appl.middleware.ExampleService proof_requested ETV
vector 224 World.node[123].appl.middleware.ExampleService proof_size ETV
vector 225 World.node[123].appl.middleware.ExampleService proof_requested ETV
181	4326959	412.051618970023	5
181	5699693	472.051618970023	11
180	4326959	412.051618970023	1
180	5699693	472.051618970023	0
203	5134968	449.033410255774	20
202	5134968	449.033410255774	5
205	5180646	451.050431662449	13
204	5180646	451.050431662449	2
93	1534317	236.083535911632	7
93	2353786	296.083535911632	9
93	3285097	356.083535911632	11
93	4413182	416.083535911632	5
93	5782312	476.083535911632	8
92	1534317	236.083535911632	0
92	2353786	296.083535911632	1
92	3285097	356.083535911632	4
92	4413182	416.083535911632	1
92	5782312	476.083535911632	1
209	5496068	463.024924072064	4
208	5496068	463.024924072064	3
143	3372835	362.011599460826	15
143	4532724	422.011599460826	21
143	5893001	482.011599460826	3
142	3372835	362.011599460826	3
142	4532724	422.011599460826	3
142	5893001	482.011599460826	2
vector 226 World.node[113].appl.middleware.ExampleService proof_size ETV
vector 227 World.node[113].appl.middleware.ExampleService proof_requested ETV
vector 228 World.node[126].appl.middleware.ExampleService proof_size ETV
vector 229 World.node[126].appl.middleware.ExampleService proof_requested ETV
149	3487701	368.025940183504	12
149	4654309	428.025940183504	8
149	6002166	488.025940183504	4
148	3487701	368.025940183504	4
148	4654309	428.025940183504	1
148	6002166	488.025940183504	1
169	4053319	398.037459656736	5
169	5368377	458.037459656736	15
168	4053319	398.037459656736	2
168	5368377	458.037459656736	8
125	2535543	310.046514218448	1
125	3583411	373.046144766989	12
125	4776789	433.046144766989	11
125	6088081	493.046144766989	10
124	2535543	310.046514218448	1
124	3583411	373.046144766989	2
124	4776789	433.046144766989	5
124	6088081	493.046144766989	3
201	5134117	449.006511411117	16
200	5134117	449.006511411117	4
137	3187673	350.051721442584	7
137	4284092	410.051721442584	8
137	5653075	470.051721442584	9
136	3187673	350.051721442584	2
136	4284092	410.051721442584	4
136	5653075	470.051721442584	2
215	5682408	471.138035791477	7
214	5682408	471.138035791477	7
vector 230 World.node[129].appl.middleware.ExampleService proof_size ETV
vector 231 World.node[129].appl.middleware.ExampleService proof_requested ETV
vector 232 World.node[120].appl.middleware.ExampleService proof_size ETV
vector 233 World.node[120].appl.middleware.ExampleService proof_requested ETV
103	1855290	259.078796947794	11
103	2667102	319.078796947794	6
103	3693826	379.078796947794	11
103	4846188	436.128047452228	2
103	6180922	499.078796947794	9
102	1855290	259.078796947794	1
102	2667102	319.078796947794	1
102	3693826	379.078796947794	7
102	4846188	436.128047452228	2
102	6180922	499.078796947794	3
vector 234 World.node[125].appl.middleware.ExampleService proof_size ETV
vector 235 World.node[125].appl.middleware.ExampleService proof_requested ETV
131	2996886	339.077918293909	9
131	4075495	399.077918293909	14
131	5399258	459.077918293909	14
131	6546177	519.077918293909	13
130	2996886	339.077918293909	4
130	4075495	399.077918293909	5
130	5399258	459.077918293909	3
130	6546177	519.077918293909	3
vector 236 World.node[135].appl.middleware.ExampleService proof_size ETV
vector 237 World.node[135].appl.middleware.ExampleService proof_requested ETV
vector 238 World.node[127].appl.middleware.ExampleService proof_size ETV
vector 239 World.node[127].appl.middleware.ExampleService proof_requested ETV
211	5544553	465.070211456932	2
211	6642381	525.012661086357	1
210	5544553	465.070211456932	2
210	6642381	525.012661086357	1
vector 240 World.node[132].appl.middleware.ExampleService proof_size ETV
vector 241 World.node[132].appl.middleware.ExampleService proof_requested ETV
77	1002108	193.13689875801	2
77	1811535	256.068898499734	13
77	2620350	316.068898499734	13
77	3636226	376.068898499734	3
77	4844147	436.068898499734	21
77	6136663	496.068898499734	11
76	1002108	193.13689875801	2
76	1811535	256.068898499734	9
76	2620350	316.068898499734	5
76	3636226	376.068898499734	2
76	4844147	436.068898499734	2
76	6136663	496.068898499734	4
189	4395238	415.112732096226	13
189	5762705	475.012732096226	11
189	6757698	532.013101174399	1
188	4395238	415.112732096226	0
188	5762705	475.012732096226	3
188	6757698	532.013101174399	1
145	3376852	362.083049714263	3
145	4536899	422.083049714263	12
145	5896165	482.083049714263	6
145	6908775	542.083049714263	13
144	3376852	362.083049714263	2
144	4536899	422.083049714263	6
144	5896165	482.083049714263	3
144	6908775	542.083049714263	1
vector 242 World.node[130].appl.middleware.ExampleService proof_size ETV
vector 243 World.node[130].appl.middleware.ExampleService proof_requested ETV
vector 244 World.node[128].appl.middleware.ExampleService proof_size ETV
vector 245 World.node[128].appl.middleware.ExampleService proof_requested ETV
153	3566562	372.058421528828	4
153	4753484	432.058421528828	14
153	6072011	492.058421528828	10
152	3566562	372.058421528828	2
152	4753484	432.058421528828	10
152	6072011	492.058421528828	5
187	4373317	414.06455074246	11
187	5745196	474.06455074246	5
187	6791842	534.06455074246	7
186	4373317	414.06455074246	3
186	5745196	474.06455074246	4
186	6791842	534.06455074246	3
183	4331336	412.123838223571	1
183	5764785	475.063472516998	19
183	6805402	535.063472516998	7
182	4331336	412.123838223571	1
182	5764785	475.063472516998	6
182	6805402	535.063472516998	2
223	5844347	479.191825762153	3
223	6863009	539.123578154032	3
222	5844347	479.191825762153	3
222	6863009	539.123578154032	3
221	5822822	478.089518078323	2
221	6848680	538.089518078323	13
220	5822822	478.089518078323	0
220	6848680	538.089518078323	7
151	3509308	369.057065268722	7
151	4680878	429.057065268722	8
151	6022713	489.057065268722	7
151	7026252	549.057065268722	10
150	3509308	369.057065268722	2
150	4680878	429.057065268722	3
150	6022713	489.057065268722	2
150	7026252	549.057065268722	2
vector 246 World.node[131].appl.middleware.ExampleService proof_size ETV
vector 247 World.node[131].appl.middleware.ExampleService proof_requested ETV
vector 248 World.node[134].appl.middleware.ExampleService proof_size ETV
vector 249 World.node[134].appl.middleware.ExampleService proof_requested ETV
vector 250 World.node[133].appl.middleware.ExampleService proof_size ETV
vector 251 World.node[133].appl.middleware.ExampleService proof_requested ETV
195	4748861	432.006246949686	14
195	6069547	492.006246949686	9
195	7069393	552.006246949686	7
194	4748861	432.006246949686	6
194	6069547	492.006246949686	2
194	7069393	552.006246949686	3
vector 252 World.node[140].appl.middleware.ExampleService proof_size ETV
vector 253 World.node[140].appl.middleware.ExampleService proof_requested ETV
239	6741348	531.036707134172	8
238	6741348	531.036707134172	1
229	6166409	498.09832218152	8
229	7171592	558.09832218152	18
228	6166409	498.09832218152	1
228	7171592	558.09832218152	9
vector 254 World.node[142].appl.middleware.ExampleService proof_size ETV
vector 255 World.node[142].appl.middleware.ExampleService proof_requested ETV
217	5696190	472.001944802655	5
217	6757134	532.001944802655	8
216	5696190	472.001944802655	4
216	6757134	532.001944802655	3
vector 256 World.node[136].appl.middleware.ExampleService proof_size ETV
vector 257 World.node[136].appl.middleware.ExampleService proof_requested ETV
vector 258 World.node[139].appl.middleware.ExampleService proof_size ETV
vector 259 World.node[139].appl.middleware.ExampleService proof_requested ETV
vector 260 World.node[149].appl.middleware.ExampleService proof_size ETV
vector 261 World.node[149].appl.middleware.ExampleService proof_requested ETV
vector 262 World.node[137].appl.middleware.ExampleService proof_size ETV
vector 263 World.node[137].appl.middleware.ExampleService proof_requested ETV
237	6722370	530.016554482876	1
236	6722370	530.016554482876	1
vector 264 World.node[141].appl.middleware.ExampleService proof_size ETV
vector 265 World.node[141].appl.middleware.ExampleService proof_requested ETV
vector 266 World.node[138].appl.middleware.ExampleService proof_size ETV
vector 267 World.node[138].appl.middleware.ExampleService proof_requested ETV
197	4998010	443.049607919785	22
197	6247092	503.049607919785	3
197	7255170	563.049607919785	12
196	4998010	443.049607919785	3
196	6247092	503.049607919785	0
196	7255170	563.049607919785	7
165	3880516	389.11183275467	6
165	5201965	452.064642863395	17
165	6408292	512.064642863395	6
165	7402199	572.064642863395	7
164	3880516	389.11183275467	6
164	5201965	452.064642863395	5
164	6408292	512.064642863395	4
164	7402199	572.064642863395	3
vector 268 World.node[147].appl.middleware.ExampleService proof_size ETV
vector 269 World.node[147].appl.middleware.ExampleService proof_requested ETV
177	4204485	406.071454090485	12
177	5566032	466.071454090485	11
177	6660891	526.071454090485	10
177	7627376	586.071454090485	5
176	4204485	406.071454090485	4
176	5566032	466.071454090485	2
176	6660891	526.071454090485	2
176	7627376	586.071454090485	2
163	3875471	389.023125705798	9
163	5134295	449.023125705798	28
163	6352682	509.023125705798	10
163	7353152	569.023125705798	7
162	3875471	389.023125705798	1
162	5134295	449.023125705798	0
162	6352682	509.023125705798	3
162	7353152	569.023125705798	3
vector 270 World.node[150].appl.middleware.ExampleService proof_size ETV
vector 271 World.node[150].appl.middleware.ExampleService proof_requested ETV
vector 272 World.node[143].appl.middleware.ExampleService proof_size ETV
vector 273 World.node[143].appl.middleware.ExampleService proof_requested ETV
233	6546701	519.090255036065	13
233	7519499	579.090255036065	6
232	6546701	519.090255036065	4
232	7519499	579.090255036065	4
179	4242571	408.041965999082	21
179	5609296	468.041965999082	12
179	6691265	528.041965999082	7
179	7659226	588.041965999082	6
178	4242571	408.041965999082	6
178	5609296	468.041965999082	7
178	6691265	528.041965999082	2
178	7659226	588.041965999082	0
173	4128255	402.012120974693	11
173	5471485	462.012120974693	6
173	6594821	522.012120974693	15
173	7564656	582.012120974693	14
172	4128255	402.012120974693	2
172	5471485	462.012120974693	5
172	6594821	522.012120974693	6
172	7564656	582.012120974693	3
171	4096364	400.071433783812	13
171	5426115	460.071433783812	22
171	6564607	520.071433783812	14
171	7535058	580.071433783812	6
170	4096364	400.071433783812	3
170	5426115	460.071433783812	2
170	6564607	520.071433783812	6
170	7535058	580.071433783812	1
155	3616916	375.034329836769	9
155	4822164	435.034329836769	14
155	6118322	495.034329836769	6
155	7116423	555.034329836769	9
154	3616916	375.034329836769	2
154	4822164	435.034329836769	2
154	6118322	495.034329836769	2
154	7116423	555.034329836769	2
161	3820536	386.032472247374	11
161	5066191	446.032472247374	17
161	6300157	506.032472247374	12
161	7303534	566.032472247374	14
160	3820536	386.032472247374	4
160	5066191	446.032472247374	3
160	6300157	506.032472247374	2
160	7303534	566.032472247374	1
vector 274 World.node[144].appl.middleware.ExampleService proof_size ETV
vector 275 World.node[144].appl.middleware.ExampleService proof_requested ETV
vector 276 World.node[148].appl.middleware.ExampleService proof_size ETV
vector 277 World.node[148].appl.middleware.ExampleService proof_requested ETV
vector 278 World.node[146].appl.middleware.ExampleService proof_size ETV
vector 279 World.node[146].appl.middleware.ExampleService proof_requested ETV
vector 280 World.node[156].appl.middleware.ExampleService proof_size ETV
vector 281 World.node[156].appl.middleware.ExampleService proof_requested ETV
vector 282 World.node[145].appl.middleware.ExampleService proof_size ETV
vector 283 World.node[145].appl.middleware.ExampleService proof_requested ETV
207	5445489	461.029536592378	10
207	6577682	521.029536592378	12
207	7546887	581.029536592378	10
206	5445489	461.029536592378	3
206	6577682	521.029536592378	3
206	7546887	581.029536592378	2
271	7985232	605.130585591558	1
270	7985232	605.130585591558	1
243	6923973	543.022210655152	20
243	7941770	603.022210655152	18
242	6923973	543.022210655152	7
242	7941770	603.022210655152	4
vector 284 World.node[152].appl.middleware.ExampleService proof_size ETV
vector 285 World.node[152].appl.middleware.ExampleService proof_requested ETV
231	6520918	518.034956020228	1
231	7547160	581.034590270929	18
230	6520918	518.034956020228	1
230	7547160	581.034590270929	0
vector 286 World.node[159].appl.middleware.ExampleService proof_size ETV
vector 287 World.node[159].appl.middleware.ExampleService proof_requested ETV
191	4413627	416.091529603186	10
191	5782782	476.091529603186	3
191	6820775	536.091529603186	17
191	7810969	596.091529603186	7
190	4413627	416.091529603186	4
190	5782782	476.091529603186	0
190	6820775	536.091529603186	9
190	7810969	596.091529603186	1
251	7289408	565.080296628014	12
251	8280586	625.080296628014	2
250	7289408	565.080296628014	5
250	8280586	625.080296628014	0
129	2759818	325.041335555399	19
129	3803930	385.041335555399	4
129	5045348	445.041335555399	16
129	6283079	505.041335555399	10
129	7288040	565.041335555399	3
129	8279938	625.041335555399	17
128	2759818	325.041335555399	8
128	3803930	385.041335555399	3
128	5045348	445.041335555399	3
128	6283079	505.041335555399	5
128	7288040	565.041335555399	1
128	8279938	625.041335555399	2
vector 288 World.node[158].appl.middleware.ExampleService proof_size ETV
vector 289 World.node[158].appl.middleware.ExampleService proof_requested ETV
277	8161802	616.040390311345	16
276	8161802	616.040390311345	5
vector 290 World.node[155].appl.middleware.ExampleService proof_size ETV
vector 291 World.node[155].appl.middleware.ExampleService proof_requested ETV
227	6164769	498.050602239231	10
227	7170016	558.050602239231	10
227	8190456	618.050602239231	10
226	6164769	498.050602239231	3
226	7170016	558.050602239231	6
226	8190456	618.050602239231	5
vector 292 World.node[153].appl.middleware.ExampleService proof_size ETV
vector 293 World.node[153].appl.middleware.ExampleService proof_requested ETV
vector 294 World.node[157].appl.middleware.ExampleService proof_size ETV
vector 295 World.node[157].appl.middleware.ExampleService proof_requested ETV
vector 296 World.node[164].appl.middleware.ExampleService proof_size ETV
vector 297 World.node[164].appl.middleware.ExampleService proof_requested ETV
vector 298 World.node[163].appl.middleware.ExampleService proof_size ETV
vector 299 World.node[163].appl.middleware.ExampleService proof_requested ETV
265	7679378	589.092994981515	5
265	8612643	649.092994981515	5
264	7679378	589.092994981515	2
264	8612643	649.092994981515	2
vector 300 World.node[162].appl.middleware.ExampleService proof_size ETV
vector 301 World.node[162].appl.middleware.ExampleService proof_requested ETV
vector 302 World.node[167].appl.middleware.ExampleService proof_size ETV
vector 303 World.node[167].appl.middleware.ExampleService proof_requested ETV
245	6960165	545.06101344109	16
245	7983767	605.06101344109	13
245	8850938	665.06101344109	10
244	6960165	545.06101344109	7
244	7983767	605.06101344109	6
244	8850938	665.06101344109	2
259	7567843	582.080437605454	3
259	8555990	645.046888429136	12
258	7567843	582.080437605454	3
258	8555990	645.046888429136	1
vector 304 World.node[169].appl.middleware.ExampleService proof_size ETV
vector 305 World.node[169].appl.middleware.ExampleService proof_requested ETV
vector 306 World.node[165].appl.middleware.ExampleService proof_size ETV
vector 307 World.node[165].appl.middleware.ExampleService proof_requested ETV
225	5988513	487.059152469784	6
225	6994472	547.059152469784	8
225	8023021	607.059152469784	9
225	8882482	667.059152469784	9
224	5988513	487.059152469784	3
224	6994472	547.059152469784	3
224	8023021	607.059152469784	4
224	8882482	667.059152469784	2
vector 308 World.node[160].appl.middleware.ExampleService proof_size ETV
vector 309 World.node[160].appl.middleware.ExampleService proof_requested ETV
219	5720505	473.033742727479	6
219	6772139	533.033742727479	17
219	7747177	593.033742727479	20
219	8673368	653.033742727479	13
218	5720505	473.033742727479	5
218	6772139	533.033742727479	6
218	7747177	593.033742727479	10
218	8673368	653.033742727479	5
vector 310 World.node[166].appl.middleware.ExampleService proof_size ETV
vector 311 World.node[166].appl.middleware.ExampleService proof_requested ETV
263	7623682	586.020322832232	4
263	8568327	646.020322832232	9
262	7623682	586.020322832232	1
262	8568327	646.020322832232	4
vector 312 World.node[177].appl.middleware.ExampleService proof_size ETV
vector 313 World.node[177].appl.middleware.ExampleService proof_requested ETV
vector 314 World.node[171].appl.middleware.ExampleService proof_size ETV
vector 315 World.node[171].appl.middleware.ExampleService proof_requested ETV
vector 316 World.node[176].appl.middleware.ExampleService proof_size ETV
vector 317 World.node[176].appl.middleware.ExampleService proof_requested ETV
285	8289361	626.086381478119	10
284	8289361	626.086381478119	2
235	6578904	521.050362115656	20
235	7548614	581.050362115656	10
235	8496774	641.050362115656	16
234	6578904	521.050362115656	6
234	7548614	581.050362115656	4
234	8496774	641.050362115656	6
vector 318 World.node[168].appl.middleware.ExampleService proof_size ETV
vector 319 World.node[168].appl.middleware.ExampleService proof_requested ETV
269	7881766	600.011740615172	7
269	8775635	660.011740615172	7
268	7881766	600.011740615172	0
268	8775635	660.011740615172	2
281	8190774	618.067296302412	12
281	9055292	678.067296302412	9
280	8190774	618.067296302412	4
280	9055292	678.067296302412	4
287	8362417	632.061261461722	14
287	9322326	692.061261461722	9
286	8362417	632.061261461722	0
286	9322326	692.061261461722	3
293	8706724	655.044344567321	12
292	8706724	655.044344567321	5
249	7274199	564.083708894113	10
249	8270104	624.083708894113	9
249	9163878	684.083708894113	5
248	7274199	564.083708894113	3
248	8270104	624.083708894113	1
248	9163878	684.083708894113	4
213	5631219	469.036842806311	10
213	6708565	529.036842806311	15
213	7676934	589.036842806311	13
213	8610916	649.036842806311	1
213	9612860	709.036842806311	8
212	5631219	469.036842806311	4
212	6708565	529.036842806311	0
212	7676934	589.036842806311	2
212	8610916	649.036842806311	0
212	9612860	709.036842806311	4
vector 320 World.node[180].appl.middleware.ExampleService proof_size ETV
vector 321 World.node[180].appl.middleware.ExampleService proof_requested ETV
257	7564710	582.012278828166	1
257	8554490	645.011915486143	16
257	9549332	705.011915486143	6
256	7564710	582.012278828166	1
256	8554490	645.011915486143	7
256	9549332	705.011915486143	2
vector 322 World.node[181].appl.middleware.ExampleService proof_size ETV
vector 323 World.node[181].appl.middleware.ExampleService proof_requested ETV
vector 324 World.node[178].appl.middleware.ExampleService proof_size ETV
vector 325 World.node[178].appl.middleware.ExampleService proof_requested ETV
vector 326 World.node[173].appl.middleware.ExampleService proof_size ETV
vector 327 World.node[173].appl.middleware.ExampleService proof_requested ETV
vector 328 World.node[175].appl.middleware.ExampleService proof_size ETV
vector 329 World.node[175].appl.middleware.ExampleService proof_requested ETV
vector 330 World.node[170].appl.middleware.ExampleService proof_size ETV
vector 331 World.node[170].appl.middleware.ExampleService proof_requested ETV
255	7449296	575.049785857275	20
255	8409556	635.049785857275	19
255	9376294	695.049785857275	8
254	7449296	575.049785857275	9
254	8409556	635.049785857275	7
254	9376294	695.049785857275	3
vector 332 World.node[183].appl.middleware.ExampleService proof_size ETV
vector 333 World.node[183].appl.middleware.ExampleService proof_requested ETV
vector 334 World.node[174].appl.middleware.ExampleService proof_size ETV
vector 335 World.node[174].appl.middleware.ExampleService proof_requested ETV
vector 336 World.node[172].appl.middleware.ExampleService proof_size ETV
vector 337 World.node[172].appl.middleware.ExampleService proof_requested ETV
319	9450532	699.04079567166	8
318	9450532	699.04079567166	3
vector 338 World.node[186].appl.middleware.ExampleService proof_size ETV
vector 339 World.node[186].appl.middleware.ExampleService proof_requested ETV
267	7691495	590.013856780645	6
267	8624577	650.013856780645	7
267	9625922	710.013856780645	9
266	7691495	590.013856780645	0
266	8624577	650.013856780645	2
266	9625922	710.013856780645	2
vector 340 World.node[185].appl.middleware.ExampleService proof_size ETV
vector 341 World.node[185].appl.middleware.ExampleService proof_requested ETV
vector 342 World.node[189].appl.middleware.ExampleService proof_size ETV
vector 343 World.node[189].appl.middleware.ExampleService proof_requested ETV
vector 344 World.node[179].appl.middleware.ExampleService proof_size ETV
vector 345 World.node[179].appl.middleware.ExampleService proof_requested ETV
253	7388313	571.075364247989	21
253	8348422	631.075364247989	19
253	9304453	691.075364247989	9
252	7388313	571.075364247989	9
252	8348422	631.075364247989	5
252	9304453	691.075364247989	3
vector 346 World.node[182].appl.middleware.ExampleService proof_size ETV
vector 347 World.node[182].appl.middleware.ExampleService proof_requested ETV
279	8162364	616.053616511845	9
279	9022012	676.053616511845	11
278	8162364	616.053616511845	4
278	9022012	676.053616511845	4
vector 348 World.node[188].appl.middleware.ExampleService proof_size ETV
vector 349 World.node[188].appl.middleware.ExampleService proof_requested ETV
vector 350 World.node[184].appl.middleware.ExampleService proof_size ETV
vector 351 World.node[184].appl.middleware.ExampleService proof_requested ETV
199	5090767	447.000876517687	14
199	6317784	507.000876517687	12
199	7319927	567.000876517687	10
199	8298805	627.000876517687	11
199	9218948	687.000876517687	14
199	10225593	744.113504909212	2
198	5090767	447.000876517687	9
198	6317784	507.000876517687	2
198	7319927	567.000876517687	1
198	8298805	627.000876517687	5
198	9218948	687.000876517687	10
198	10225593	744.113504909212	2
305	8990241	674.047009529942	13
305	10030666	734.047009529942	16
304	8990241	674.047009529942	3
304	10030666	734.047009529942	5
vector 352 World.node[193].appl.middleware.ExampleService proof_size ETV
vector 353 World.node[193].appl.middleware.ExampleService proof_requested ETV
295	8720463	656.086373833125	17
295	9710657	716.086373833125	9
294	8720463	656.086373833125	2
294	9710657	716.086373833125	1
vector 354 World.node[191].appl.middleware.ExampleService proof_size ETV
vector 355 World.node[191].appl.middleware.ExampleService proof_requested ETV
vector 356 World.node[198].appl.middleware.ExampleService proof_size ETV
vector 357 World.node[198].appl.middleware.ExampleService proof_requested ETV
241	6818848	536.035614529508	7
241	7808042	596.035614529508	12
241	8718772	656.035614529508	14
241	9709221	716.035614529508	14
240	6818848	536.035614529508	4
240	7808042	596.035614529508	4
240	8718772	656.035614529508	5
240	9709221	716.035614529508	2
297	8749774	658.031796657108	4
297	9737285	718.031796657108	12
297	10780992	775.144144776689	3
296	8749774	658.031796657108	0
296	9737285	718.031796657108	2
296	10780992	775.144144776689	3
vector 358 World.node[187].appl.middleware.ExampleService proof_size ETV
vector 359 World.node[187].appl.middleware.ExampleService proof_requested ETV
273	8005093	606.098669989477	8
273	8867450	666.098669989477	11
273	9881574	726.098669989477	17
272	8005093	606.098669989477	5
272	8867450	666.098669989477	6
272	9881574	726.098669989477	6
327	9797857	722.065093432367	10
326	9797857	722.065093432367	3
vector 360 World.node[190].appl.middleware.ExampleService proof_size ETV
vector 361 World.node[190].appl.middleware.ExampleService proof_requested ETV
361	10908885	782.094089545426	5
360	10908885	782.094089545426	1
313	9359222	694.01461475403	5
313	10406197	754.01461475403	5
312	9359222	694.01461475403	1
312	10406197	754.01461475403	2
vector 362 World.node[200].appl.middleware.ExampleService proof_size ETV
vector 363 World.node[200].appl.middleware.ExampleService proof_requested ETV
289	8542079	644.041260821046	2
289	9534395	704.041260821046	10
289	10572694	764.041260821046	4
288	8542079	644.041260821046	1
288	9534395	704.041260821046	2
288	10572694	764.041260821046	2
vector 364 World.node[197].appl.middleware.ExampleService proof_size ETV
vector 365 World.node[197].appl.middleware.ExampleService proof_requested ETV
vector 366 World.node[195].appl.middleware.ExampleService proof_size ETV
vector 367 World.node[195].appl.middleware.ExampleService proof_requested ETV
vector 368 World.node[204].appl.middleware.ExampleService proof_size ETV
vector 369 World.node[204].appl.middleware.ExampleService proof_requested ETV
vector 370 World.node[194].appl.middleware.ExampleService proof_size ETV
vector 371 World.node[194].appl.middleware.ExampleService proof_requested ETV
275	8145165	615.043543437705	18
275	9005099	675.043543437705	8
275	10050046	735.043543437705	10
275	11130936	795.043543437705	4
274	8145165	615.043543437705	7
274	9005099	675.043543437705	3
274	10050046	735.043543437705	5
274	11130936	795.043543437705	2
vector 372 World.node[201].appl.middleware.ExampleService proof_size ETV
vector 373 World.node[201].appl.middleware.ExampleService proof_requested ETV
vector 374 World.node[192].appl.middleware.ExampleService proof_size ETV
vector 375 World.node[192].appl.middleware.ExampleService proof_requested ETV
301	8848769	665.011335161841	16
301	9856299	725.011335161841	11
300	8848769	665.011335161841	2
300	9856299	725.011335161841	1
371	11242365	802.084029664495	4
370	11242365	802.084029664495	0
315	9361988	694.07781775014	9
315	10408573	754.07781775014	7
315	11460819	814.07781775014	15
314	9361988	694.07781775014	6
314	10408573	754.07781775014	4
314	11460819	814.07781775014	2
303	8912736	669.072773560695	8
303	9937291	729.072773560695	13
303	10993699	786.15463502709	4
302	8912736	669.072773560695	1
302	9937291	729.072773560695	4
302	10993699	786.15463502709	4
vector 376 World.node[208].appl.middleware.ExampleService proof_size ETV
vector 377 World.node[208].appl.middleware.ExampleService proof_requested ETV
247	7220204	561.036154031195	10
247	8228662	621.036154031195	9
247	9104345	681.036154031195	5
247	10167281	741.036154031195	23
247	11224575	801.036154031195	15
246	7220204	561.036154031195	1
246	8228662	621.036154031195	4
246	9104345	681.036154031195	4
246	10167281	741.036154031195	8
246	11224575	801.036154031195	1
363	11027398	788.053734653443	9
362	11027398	788.053734653443	3
329	9799035	722.09199115918	13
329	10908882	782.09199115918	14
328	9799035	722.09199115918	4
328	10908882	782.09199115918	6
vector 378 World.node[212].appl.middleware.ExampleService proof_size ETV
vector 379 World.node[212].appl.middleware.ExampleService proof_requested ETV
vector 380 World.node[199].appl.middleware.ExampleService proof_size ETV
vector 381 World.node[199].appl.middleware.ExampleService proof_requested ETV
vector 382 World.node[202].appl.middleware.ExampleService proof_size ETV
vector 383 World.node[202].appl.middleware.ExampleService proof_requested ETV
vector 384 World.node[205].appl.middleware.ExampleService proof_size ETV
vector 385 World.node[205].appl.middleware.ExampleService proof_requested ETV
335	9879670	726.050392719638	4
335	10988481	786.050392719638	11
334	9879670	726.050392719638	2
334	10988481	786.050392719638	5
331	9839289	724.026085241954	19
331	10949874	784.026085241954	15
330	9839289	724.026085241954	8
330	10949874	784.026085241954	6
365	11060293	790.090898334282	14
364	11060293	790.090898334282	4
vector 386 World.node[196].appl.middleware.ExampleService proof_size ETV
vector 387 World.node[196].appl.middleware.ExampleService proof_requested ETV
345	10150426	740.086621510051	12
345	11211007	800.086621510051	5
344	10150426	740.086621510051	2
344	11211007	800.086621510051	2
vector 388 World.node[214].appl.middleware.ExampleService proof_size ETV
vector 389 World.node[214].appl.middleware.ExampleService proof_requested ETV
357	10738183	773.149848266672	2
357	11919809	836.063937212504	17
356	10738183	773.149848266672	2
356	11919809	836.063937212504	3
vector 390 World.node[207].appl.middleware.ExampleService proof_size ETV
vector 391 World.node[207].appl.middleware.ExampleService proof_requested ETV
vector 392 World.node[203].appl.middleware.ExampleService proof_size ETV
vector 393 World.node[203].appl.middleware.ExampleService proof_requested ETV
vector 394 World.node[216].appl.middleware.ExampleService proof_size ETV
vector 395 World.node[216].appl.middleware.ExampleService proof_requested ETV
vector 396 World.node[206].appl.middleware.ExampleService proof_size ETV
vector 397 World.node[206].appl.middleware.ExampleService proof_requested ETV
vector 398 World.node[210].appl.middleware.ExampleService proof_size ETV
vector 399 World.node[210].appl.middleware.ExampleService proof_requested ETV
vector 400 World.node[211].appl.middleware.ExampleService proof_size ETV
vector 401 World.node[211].appl.middleware.ExampleService proof_requested ETV
vector 402 World.node[215].appl.middleware.ExampleService proof_size ETV
vector 403 World.node[215].appl.middleware.ExampleService proof_requested ETV
vector 404 World.node[209].appl.middleware.ExampleService proof_size ETV
vector 405 World.node[209].appl.middleware.ExampleService proof_requested ETV
323	9685498	714.063113797107	6
323	10755663	774.063113797107	16
323	11884834	834.063113797107	14
322	9685498	714.063113797107	1
322	10755663	774.063113797107	9
322	11884834	834.063113797107	1
343	10134694	739.089740270074	3
343	11149688	796.090099899075	1
343	12382995	859.089740270074	17
342	10134694	739.089740270074	0
342	11149688	796.090099899075	1
342	12382995	859.089740270074	6
337	9900843	727.022037777398	14
337	11009016	787.022037777398	11
337	12127515	847.022037777398	14
336	9900843	727.022037777398	5
336	11009016	787.022037777398	1
336	12127515	847.022037777398	4
347	10276437	747.052871913766	11
347	11324374	807.052871913766	16
346	10276437	747.052871913766	6
346	11324374	807.052871913766	2
369	11209200	800.0178988931	7
369	12398168	860.0178988931	12
368	11209200	800.0178988931	2
368	12398168	860.0178988931	4
283	8201808	619.004404310952	10
283	9070121	679.004404310952	8
283	10130519	739.004404310952	10
283	11195608	799.004404310952	7
283	12379156	859.004404310952	9
282	8201808	619.004404310952	1
282	9070121	679.004404310952	1
282	10130519	739.004404310952	2
282	11195608	799.004404310952	0
282	12379156	859.004404310952	5
vector 406 World.node[223].appl.middleware.ExampleService proof_size ETV
vector 407 World.node[223].appl.middleware.ExampleService proof_requested ETV
vector 408 World.node[217].appl.middleware.ExampleService proof_size ETV
vector 409 World.node[217].appl.middleware.ExampleService proof_requested ETV
vector 410 World.node[218].appl.middleware.ExampleService proof_size ETV
vector 411 World.node[218].appl.middleware.ExampleService proof_requested ETV
vector 412 World.node[224].appl.middleware.ExampleService proof_size ETV
vector 413 World.node[224].appl.middleware.ExampleService proof_requested ETV
291	8672765	653.007281830139	13
291	9668396	713.007281830139	4
291	10731103	773.007281830139	19
291	11859542	833.007281830139	8
290	8672765	653.007281830139	4
290	9668396	713.007281830139	2
290	10731103	773.007281830139	1
290	11859542	833.007281830139	4
311	9341437	693.034309686022	16
311	10387770	753.034309686022	7
311	11435074	813.034309686022	18
311	12675083	873.034309686022	15
310	9341437	693.034309686022	4
310	10387770	753.034309686022	4
310	11435074	813.034309686022	3
310	12675083	873.034309686022	3
381	11748534	827.065535979322	16
380	11748534	827.065535979322	8
vector 414 World.node[220].appl.middleware.ExampleService proof_size ETV
vector 415 World.node[220].appl.middleware.ExampleService proof_requested ETV
321	9659680	712.050624474604	11
321	10716111	772.050624474604	17
321	11845333	832.050624474604	16
321	13066552	892.050624474604	7
320	9659680	712.050624474604	3
320	10716111	772.050624474604	6
320	11845333	832.050624474604	6
320	13066552	892.050624474604	3
395	12268744	854.038308446365	9
394	12268744	854.038308446365	3
341	10118912	738.216843445502	13
341	11223849	801.007060395437	7
341	12420126	861.007060395437	20
340	10118912	738.216843445502	13
340	11223849	801.007060395437	3
340	12420126	861.007060395437	11
367	11104753	793.094524502987	7
367	12255639	853.094524502987	14
366	11104753	793.094524502987	0
366	12255639	853.094524502987	4
vector 416 World.node[231].appl.middleware.ExampleService proof_size ETV
vector 417 World.node[231].appl.middleware.ExampleService proof_requested ETV
375	11323286	807.015541212982	14
375	12548584	867.015541212982	2
374	11323286	807.015541212982	3
374	12548584	867.015541212982	1
307	9004006	675.011519598472	10
307	10048323	735.011519598472	6
307	11130252	795.011519598472	6
307	12288061	855.011519598472	20
306	9004006	675.011519598472	5
306	10048323	735.011519598472	4
306	11130252	795.011519598472	2
306	12288061	855.011519598472	8
vector 418 World.node[213].appl.middleware.ExampleService proof_size ETV
vector 419 World.node[213].appl.middleware.ExampleService proof_requested ETV
vector 420 World.node[230].appl.middleware.ExampleService proof_size ETV
vector 421 World.node[230].appl.middleware.ExampleService proof_requested ETV
vector 422 World.node[234].appl.middleware.ExampleService proof_size ETV
vector 423 World.node[234].appl.middleware.ExampleService proof_requested ETV
vector 424 World.node[229].appl.middleware.ExampleService proof_size ETV
vector 425 World.node[229].appl.middleware.ExampleService proof_requested ETV
309	9320124	692.025231129979	8
309	10368092	752.025231129979	13
309	11408905	812.025231129979	8
309	12651403	872.025231129979	16
308	9320124	692.025231129979	6
308	10368092	752.025231129979	5
308	11408905	812.025231129979	2
308	12651403	872.025231129979	11
vector 426 World.node[235].appl.middleware.ExampleService proof_size ETV
vector 427 World.node[235].appl.middleware.ExampleService proof_requested ETV
vector 428 World.node[228].appl.middleware.ExampleService proof_size ETV
vector 429 World.node[228].appl.middleware.ExampleService proof_requested ETV
vector 430 World.node[221].appl.middleware.ExampleService proof_size ETV
vector 431 World.node[221].appl.middleware.ExampleService proof_requested ETV
349	10350165	751.015363325342	13
349	11390346	811.015363325342	19
349	12634987	871.015363325342	14
348	10350165	751.015363325342	6
348	11390346	811.015363325342	3
348	12634987	871.015363325342	5
355	10691052	771.00166516935	19
355	11823182	831.00166516935	14
355	12992401	888.096870966395	1
354	10691052	771.00166516935	1
354	11823182	831.00166516935	6
354	12992401	888.096870966395	1
379	11745081	827.0005658329	4
379	12913441	884.108924870749	4
378	11745081	827.0005658329	0
378	12913441	884.108924870749	4
299	8763831	659.098185212445	13
299	9752222	719.098185212445	7
299	10854507	779.098185212445	19
299	11976553	839.098185212445	7
299	13168871	899.098185212445	10
298	8763831	659.098185212445	1
298	9752222	719.098185212445	3
298	10854507	779.098185212445	7
298	11976553	839.098185212445	2
298	13168871	899.098185212445	3
vector 432 World.node[226].appl.middleware.ExampleService proof_size ETV
vector 433 World.node[226].appl.middleware.ExampleService proof_requested ETV
vector 434 World.node[227].appl.middleware.ExampleService proof_size ETV
vector 435 World.node[227].appl.middleware.ExampleService proof_requested ETV
vector 436 World.node[232].appl.middleware.ExampleService proof_size ETV
vector 437 World.node[232].appl.middleware.ExampleService proof_requested ETV
359	10815417	777.036757646245	9
359	11938481	837.036757646245	12
359	13097672	894.085341883714	2
358	10815417	777.036757646245	3
358	11938481	837.036757646245	5
358	13097672	894.085341883714	2
385	11847634	832.12171521182	1
385	13112760	895.061346648261	15
384	11847634	832.12171521182	1
384	13112760	895.061346648261	4
vector 438 World.node[236].appl.middleware.ExampleService proof_size ETV
vector 439 World.node[236].appl.middleware.ExampleService proof_requested ETV
389	12195574	850.066945809708	11
389	13355649	910.066945809708	12
388	12195574	850.066945809708	2
388	13355649	910.066945809708	4
333	9877576	726.021966677322	6
333	10986651	786.021966677322	23
333	12106256	846.021966677322	11
333	13279569	906.021966677322	11
332	9877576	726.021966677322	2
332	10986651	786.021966677322	6
332	12106256	846.021966677322	6
332	13279569	906.021966677322	5
351	10476181	758.020254877373	7
351	11548626	818.020254877373	17
351	12781413	878.020254877373	14
351	13793524	938.020254877373	19
350	10476181	758.020254877373	3
350	11548626	818.020254877373	10
350	12781413	878.020254877373	6
350	13793524	938.020254877373	3
vector 440 World.node[239].appl.middleware.ExampleService proof_size ETV
vector 441 World.node[239].appl.middleware.ExampleService proof_requested ETV
261	7594672	584.042043959978	11
261	8542174	644.042043959978	16
261	9534397	704.042043959978	15
261	10572809	764.042043959978	15
261	11681500	824.042043959978	18
261	12853026	881.075646841535	2
261	13888866	944.042043959978	15
260	7594672	584.042043959978	3
260	8542174	644.042043959978	4
260	9534397	704.042043959978	4
260	10572809	764.042043959978	5
260	11681500	824.042043959978	4
260	12853026	881.075646841535	2
260	13888866	944.042043959978	3
383	11825879	831.061431167754	1
383	13096885	894.043921631365	12
383	14058946	954.043921631365	10
382	11825879	831.061431167754	1
382	13096885	894.043921631365	3
382	14058946	954.043921631365	4
vector 442 World.node[243].appl.middleware.ExampleService proof_size ETV
vector 443 World.node[243].appl.middleware.ExampleService proof_requested ETV
433	13730833	934.086280683521	2
432	13730833	934.086280683521	1
435	13763076	936.055254406342	8
434	13763076	936.055254406342	2
vector 444 World.node[244].appl.middleware.ExampleService proof_size ETV
vector 445 World.node[244].appl.middleware.ExampleService proof_requested ETV
vector 446 World.node[237].appl.middleware.ExampleService proof_size ETV
vector 447 World.node[237].appl.middleware.ExampleService proof_requested ETV
vector 448 World.node[246].appl.middleware.ExampleService proof_size ETV
vector 449 World.node[246].appl.middleware.ExampleService proof_requested ETV
339	9936622	729.048815252492	11
339	11042871	789.048815252492	9
339	12172430	849.048815252492	10
339	13334488	909.048815252492	11
338	9936622	729.048815252492	4
338	11042871	789.048815252492	3
338	12172430	849.048815252492	3
338	13334488	909.048815252492	5
401	12358173	858.092878274666	13
401	13503792	918.092878274666	15
400	12358173	858.092878274666	2
400	13503792	918.092878274666	4
393	12230523	852.001321334112	9
393	13389798	912.001321334112	12
393	14362398	972.001321334112	9
392	12230523	852.001321334112	2
392	13389798	912.001321334112	6
392	14362398	972.001321334112	4
vector 450 World.node[249].appl.middleware.ExampleService proof_size ETV
vector 451 World.node[249].appl.middleware.ExampleService proof_requested ETV
vector 452 World.node[241].appl.middleware.ExampleService proof_size ETV
vector 453 World.node[241].appl.middleware.ExampleService proof_requested ETV
405	12423305	861.058912196034	11
405	13548818	921.058912196034	9
404	12423305	861.058912196034	9
404	13548818	921.058912196034	6
411	12614971	870.06067193582	2
411	13713366	933.005389306322	7
410	12614971	870.06067193582	2
410	13713366	933.005389306322	3
vector 454 World.node[242].appl.middleware.ExampleService proof_size ETV
vector 455 World.node[242].appl.middleware.ExampleService proof_requested ETV
453	14431253	976.100824002785	1
452	14431253	976.100824002785	1
vector 456 World.node[245].appl.middleware.ExampleService proof_size ETV
vector 457 World.node[245].appl.middleware.ExampleService proof_requested ETV
387	12012664	841.007055590698	15
387	13196666	901.007055590698	12
387	14172973	961.007055590698	9
386	12012664	841.007055590698	5
386	13196666	901.007055590698	1
386	14172973	961.007055590698	2
325	9686018	714.093805415649	10
325	10757018	774.093805415649	16
325	11831929	831.180368632706	5
325	13097968	894.093805415649	10
325	14061389	954.093805415649	13
324	9686018	714.093805415649	5
324	10757018	774.093805415649	3
324	11831929	831.180368632706	5
324	13097968	894.093805415649	2
324	14061389	954.093805415649	5
vector 458 World.node[240].appl.middleware.ExampleService proof_size ETV
vector 459 World.node[240].appl.middleware.ExampleService proof_requested ETV
vector 460 World.node[247].appl.middleware.ExampleService proof_size ETV
vector 461 World.node[247].appl.middleware.ExampleService proof_requested ETV
373	11310336	806.15583146526	1
373	12590898	869.095460365433	15
373	13659823	929.095460365433	14
373	14609073	989.095460365433	8
372	11310336	806.15583146526	1
372	12590898	869.095460365433	4
372	13659823	929.095460365433	3
372	14609073	989.095460365433	1
377	11528914	817.003187054489	18
377	12761817	877.003187054489	15
377	13777495	937.003187054489	4
377	14683854	994.063558887632	1
376	11528914	817.003187054489	10
376	12761817	877.003187054489	9
376	13777495	937.003187054489	2
376	14683854	994.063558887632	1
vector 462 World.node[248].appl.middleware.ExampleService proof_size ETV
vector 463 World.node[248].appl.middleware.ExampleService proof_requested ETV
409	12590569	869.088425429421	10
409	13659422	929.088425429421	14
409	14608861	989.088425429421	18
408	12590569	869.088425429421	4
408	13659422	929.088425429421	5
408	14608861	989.088425429421	3
417	13213278	902.090054286062	8
417	14191543	962.090054286062	5
416	13213278	902.090054286062	3
416	14191543	962.090054286062	2
415	13011728	889.089303268399	12
415	13973037	949.089303268399	11
415	14886541	1009.089303268399	3
414	13011728	889.089303268399	2
414	13973037	949.089303268399	5
414	14886541	1009.089303268399	1
vector 464 World.node[253].appl.middleware.ExampleService proof_size ETV
vector 465 World.node[253].appl.middleware.ExampleService proof_requested ETV
vector 466 World.node[257].appl.middleware.ExampleService proof_size ETV
vector 467 World.node[257].appl.middleware.ExampleService proof_requested ETV
vector 468 World.node[254].appl.middleware.ExampleService proof_size ETV
vector 469 World.node[254].appl.middleware.ExampleService proof_requested ETV
421	13356390	910.091409061803	8
421	14330019	970.091409061803	13
420	13356390	910.091409061803	2
420	14330019	970.091409061803	5
403	12421377	861.027968808822	18
403	13547769	921.027968808822	7
403	14502699	981.027968808822	8
402	12421377	861.027968808822	5
402	13547769	921.027968808822	2
402	14502699	981.027968808822	2
397	12333731	857.097303638048	14
397	13485365	917.097303638048	16
397	14444683	977.097303638048	14
396	12333731	857.097303638048	3
396	13485365	917.097303638048	2
396	14444683	977.097303638048	6
vector 470 World.node[255].appl.middleware.ExampleService proof_size ETV
vector 471 World.node[255].appl.middleware.ExampleService proof_requested ETV
439	13906915	945.096030657995	5
439	14834491	1005.096030657995	6
438	13906915	945.096030657995	2
438	14834491	1005.096030657995	2
vector 472 World.node[251].appl.middleware.ExampleService proof_size ETV
vector 473 World.node[251].appl.middleware.ExampleService proof_requested ETV
vector 474 World.node[250].appl.middleware.ExampleService proof_size ETV
vector 475 World.node[250].appl.middleware.ExampleService proof_requested ETV
vector 476 World.node[252].appl.middleware.ExampleService proof_size ETV
vector 477 World.node[252].appl.middleware.ExampleService proof_requested ETV
419	13317949	908.064518516177	1
419	14345238	971.064147480088	11
418	13317949	908.064518516177	1
418	14345238	971.064147480088	4
vector 478 World.node[259].appl.middleware.ExampleService proof_size ETV
vector 479 World.node[259].appl.middleware.ExampleService proof_requested ETV
vector 480 World.node[260].appl.middleware.ExampleService proof_size ETV
vector 481 World.node[260].appl.middleware.ExampleService proof_requested ETV
353	10513490	760.04985196036	2
353	11660887	823.003134503798	17
353	12893001	883.003134503798	12
353	13873718	943.003134503798	13
353	14807929	1003.003134503798	7
352	10513490	760.04985196036	2
352	11660887	823.003134503798	3
352	12893001	883.003134503798	2
352	13873718	943.003134503798	1
352	14807929	1003.003134503798	3
vector 482 World.node[266].appl.middleware.ExampleService proof_size ETV
vector 483 World.node[266].appl.middleware.ExampleService proof_requested ETV
391	12212858	851.046937109111	21
391	13371649	911.046937109111	4
391	14344441	971.046937109111	13
391	15153889	1031.046937109111	8
390	12212858	851.046937109111	10
390	13371649	911.046937109111	2
390	14344441	971.046937109111	7
390	15153889	1031.046937109111	4
399	12357794	858.081463632083	3
399	13548222	921.043810472381	6
399	14503146	981.043810472381	10
399	15288077	1041.043810472381	7
398	12357794	858.081463632083	3
398	13548222	921.043810472381	3
398	14503146	981.043810472381	4
398	15288077	1041.043810472381	2
463	14820199	1004.031175278733	10
462	14820199	1004.031175278733	2
vector 484 World.node[258].appl.middleware.ExampleService proof_size ETV
vector 485 World.node[258].appl.middleware.ExampleService proof_requested ETV
317	9376009	695.046381936944	5
317	10422786	755.046381936944	7
317	11482870	815.046381936944	18
317	12717289	875.046381936944	16
317	13746097	935.046381936944	10
317	14651816	992.16507321296	4
317	15510857	1055.046381936944	8
316	9376009	695.046381936944	0
316	10422786	755.046381936944	4
316	11482870	815.046381936944	10
316	12717289	875.046381936944	5
316	13746097	935.046381936944	1
316	14651816	992.16507321296	4
316	15510857	1055.046381936944	4
429	13466798	916.017790131317	4
429	14428107	976.017790131317	13
429	15215882	1036.017790131317	9
428	13466798	916.017790131317	1
428	14428107	976.017790131317	4
428	15215882	1036.017790131317	4
477	15128799	1029.004717252241	7
476	15128799	1029.004717252241	2
447	14222895	964.091988834739	13
447	15069461	1024.091988834739	3
446	14222895	964.091988834739	4
446	15069461	1024.091988834739	1
475	15118820	1028.053649204643	13
474	15118820	1028.053649204643	11
455	14531210	983.075666286191	19
455	15321754	1043.075666286191	4
454	14531210	983.075666286191	4
454	15321754	1043.075666286191	2
vector 486 World.node[265].appl.middleware.ExampleService proof_size ETV
vector 487 World.node[265].appl.middleware.ExampleService proof_requested ETV
vector 488 World.node[264].appl.middleware.ExampleService proof_size ETV
vector 489 World.node[264].appl.middleware.ExampleService proof_requested ETV
vector 490 World.node[268].appl.middleware.ExampleService proof_size ETV
vector 491 World.node[268].appl.middleware.ExampleService proof_requested ETV
vector 492 World.node[261].appl.middleware.ExampleService proof_size ETV
vector 493 World.node[261].appl.middleware.ExampleService proof_requested ETV
441	14092805	956.070215074066	3
441	14974529	1016.070215074066	13
441	15771330	1076.070215074066	11
440	14092805	956.070215074066	2
440	14974529	1016.070215074066	6
440	15771330	1076.070215074066	4
485	15570899	1059.042653253107	2
484	15570899	1059.042653253107	2
vector 494 World.node[262].appl.middleware.ExampleService proof_size ETV
vector 495 World.node[262].appl.middleware.ExampleService proof_requested ETV
459	14682161	994.020208227681	16
459	15497071	1054.020208227681	10
458	14682161	994.020208227681	4
458	15497071	1054.020208227681	3
425	13409368	913.011205327604	4
425	14379539	973.011205327604	14
425	15176365	1033.011205327604	8
424	13409368	913.011205327604	1
424	14379539	973.011205327604	4
424	15176365	1033.011205327604	1
471	15069458	1024.083547164872	9
471	15868249	1084.083547164872	6
470	15069458	1024.083547164872	1
470	15868249	1084.083547164872	1
vector 496 World.node[273].appl.middleware.ExampleService proof_size ETV
vector 497 World.node[273].appl.middleware.ExampleService proof_requested ETV
vector 498 World.node[256].appl.middleware.ExampleService proof_size ETV
vector 499 World.node[256].appl.middleware.ExampleService proof_requested ETV
423	13391306	912.031720892852	9
423	14363569	972.031720892852	14
423	15165275	1032.031720892852	12
423	15975738	1092.031720892852	8
422	13391306	912.031720892852	7
422	14363569	972.031720892852	7
422	15165275	1032.031720892852	5
422	15975738	1092.031720892852	4
451	14429038	976.047457411094	10
451	15217392	1036.047457411094	5
451	16029654	1096.047457411094	7
450	14429038	976.047457411094	4
450	15217392	1036.047457411094	0
450	16029654	1096.047457411094	5
vector 500 World.node[271].appl.middleware.ExampleService proof_size ETV
vector 501 World.node[271].appl.middleware.ExampleService proof_requested ETV
vector 502 World.node[267].appl.middleware.ExampleService proof_size ETV
vector 503 World.node[267].appl.middleware.ExampleService proof_requested ETV
vector 504 World.node[276].appl.middleware.ExampleService proof_size ETV
vector 505 World.node[276].appl.middleware.ExampleService proof_requested ETV
vector 506 World.node[270].appl.middleware.ExampleService proof_size ETV
vector 507 World.node[270].appl.middleware.ExampleService proof_requested ETV
443	14107863	957.0169864567	4
443	14984963	1017.0169864567	2
443	15779214	1077.0169864567	12
442	14107863	957.0169864567	2
442	14984963	1017.0169864567	1
442	15779214	1077.0169864567	4
vector 508 World.node[280].appl.middleware.ExampleService proof_size ETV
vector 509 World.node[280].appl.middleware.ExampleService proof_requested ETV
vector 510 World.node[272].appl.middleware.ExampleService proof_size ETV
vector 511 World.node[272].appl.middleware.ExampleService proof_requested ETV
vector 512 World.node[269].appl.middleware.ExampleService proof_size ETV
vector 513 World.node[269].appl.middleware.ExampleService proof_requested ETV
427	13427400	914.032272420637	16
427	14396521	974.032272420637	19
427	15189633	1034.032272420637	9
427	16001429	1094.032272420637	3
426	13427400	914.032272420637	6
426	14396521	974.032272420637	6
426	15189633	1034.032272420637	2
426	16001429	1094.032272420637	2
vector 514 World.node[277].appl.middleware.ExampleService proof_size ETV
vector 515 World.node[277].appl.middleware.ExampleService proof_requested ETV
vector 516 World.node[283].appl.middleware.ExampleService proof_size ETV
vector 517 World.node[283].appl.middleware.ExampleService proof_requested ETV
vector 518 World.node[284].appl.middleware.ExampleService proof_size ETV
vector 519 World.node[284].appl.middleware.ExampleService proof_requested ETV
vector 520 World.node[281].appl.middleware.ExampleService proof_size ETV
vector 521 World.node[281].appl.middleware.ExampleService proof_requested ETV
457	14555392	985.040711403266	19
457	15356042	1045.040711403266	8
457	16107696	1102.149362436823	2
456	14555392	985.040711403266	3
456	15356042	1045.040711403266	6
456	16107696	1102.149362436823	2
513	16362472	1124.023830069904	6
512	16362472	1124.023830069904	1
vector 522 World.node[275].appl.middleware.ExampleService proof_size ETV
vector 523 World.node[275].appl.middleware.ExampleService proof_requested ETV
vector 524 World.node[279].appl.middleware.ExampleService proof_size ETV
vector 525 World.node[279].appl.middleware.ExampleService proof_requested ETV
483	15337577	1044.044760337751	9
483	16125457	1104.044760337751	6
482	15337577	1044.044760337751	2
482	16125457	1104.044760337751	3
445	14207500	963.06801547436	5
445	15023172	1020.108918474195	3
445	15850507	1083.06801547436	8
445	16658541	1143.06801547436	12
444	14207500	963.06801547436	0
444	15023172	1020.108918474195	3
444	15850507	1083.06801547436	2
444	16658541	1143.06801547436	8
407	12574163	868.14880149262	8
407	13644760	928.04880149262	13
407	14596878	988.04880149262	18
407	15407056	1048.04880149262	11
407	16170496	1108.04880149262	14
406	12574163	868.14880149262	0
406	13644760	928.04880149262	1
406	14596878	988.04880149262	3
406	15407056	1048.04880149262	8
406	16170496	1108.04880149262	4
vector 526 World.node[285].appl.middleware.ExampleService proof_size ETV
vector 527 World.node[285].appl.middleware.ExampleService proof_requested ETV
vector 528 World.node[274].appl.middleware.ExampleService proof_size ETV
vector 529 World.node[274].appl.middleware.ExampleService proof_requested ETV
[...]
1570	64484538	3444.090935921296	8
1570	66220332	3504.090935921296	4
vector 1748 World.node[912].appl.middleware.ExampleService proof_size ETV
vector 1749 World.node[912].appl.middleware.ExampleService proof_requested ETV
1667	62059651	3373.087992280326	5
1667	64148596	3433.087992280326	13
1667	65987027	3493.087992280326	14
1666	62059651	3373.087992280326	1
1666	64148596	3433.087992280326	1
1666	65987027	3493.087992280326	7
vector 1750 World.node[921].appl.middleware.ExampleService proof_size ETV
vector 1751 World.node[921].appl.middleware.ExampleService proof_requested ETV
vector 1752 World.node[915].appl.middleware.ExampleService proof_size ETV
vector 1753 World.node[915].appl.middleware.ExampleService proof_requested ETV
vector 1754 World.node[930].appl.middleware.ExampleService proof_size ETV
vector 1755 World.node[930].appl.middleware.ExampleService proof_requested ETV
vector 1756 World.node[927].appl.middleware.ExampleService proof_size ETV
vector 1757 World.node[927].appl.middleware.ExampleService proof_requested ETV
vector 1758 World.node[926].appl.middleware.ExampleService proof_size ETV
vector 1759 World.node[926].appl.middleware.ExampleService proof_requested ETV
1739	66395623	3513.007076542219	14
1738	66395623	3513.007076542219	1
vector 1760 World.node[934].appl.middleware.ExampleService proof_size ETV
vector 1761 World.node[934].appl.middleware.ExampleService proof_requested ETV
vector 1762 World.node[925].appl.middleware.ExampleService proof_size ETV
vector 1763 World.node[925].appl.middleware.ExampleService proof_requested ETV
vector 1764 World.node[922].appl.middleware.ExampleService proof_size ETV
vector 1765 World.node[922].appl.middleware.ExampleService proof_requested ETV
vector 1766 World.node[923].appl.middleware.ExampleService proof_size ETV
vector 1767 World.node[923].appl.middleware.ExampleService proof_requested ETV
1711	64918486	3460.069942953516	1
1711	66626224	3523.00957591706	6
1710	64918486	3460.069942953516	1
1710	66626224	3523.00957591706	4
1669	62148078	3376.00796603607	3
1669	64234583	3436.00796603607	16
1669	66046898	3496.00796603607	7
1669	67301287	3556.00796603607	2
1668	62148078	3376.00796603607	0
1668	64234583	3436.00796603607	4
1668	66046898	3496.00796603607	0
1668	67301287	3556.00796603607	1
vector 1768 World.node[928].appl.middleware.ExampleService proof_size ETV
vector 1769 World.node[928].appl.middleware.ExampleService proof_requested ETV
1707	64509713	3445.037853037124	20
1707	66238004	3505.037853037124	17
1707	67531186	3565.037853037124	16
1706	64509713	3445.037853037124	0
1706	66238004	3505.037853037124	3
1706	67531186	3565.037853037124	1
1713	64969425	3462.015483246627	15
1713	66605094	3522.015483246627	7
1712	64969425	3462.015483246627	5
1712	66605094	3522.015483246627	3
1701	63902176	3426.001884861966	22
1701	65770210	3486.001884861966	19
1701	67078304	3546.001884861966	13
1700	63902176	3426.001884861966	5
1700	65770210	3486.001884861966	5
1700	67078304	3546.001884861966	0
1715	64973910	3462.091428181971	4
1715	66609032	3522.091428181971	9
1714	64973910	3462.091428181971	3
1714	66609032	3522.091428181971	5
1589	58316427	3238.072483221698	17
1589	59845505	3298.072483221698	17
1589	61637326	3358.072483221698	19
1589	63607366	3418.072483221698	19
1589	65507169	3478.072483221698	22
1589	66926962	3538.072483221698	7
1588	58316427	3238.072483221698	1
1588	59845505	3298.072483221698	3
1588	61637326	3358.072483221698	0
1588	63607366	3418.072483221698	0
1588	65507169	3478.072483221698	6
1588	66926962	3538.072483221698	2
1657	61528932	3354.128812481727	1
1657	63578566	3417.068450790853	16
1657	65471856	3477.068450790853	34
1657	66908055	3537.068450790853	6
1656	61528932	3354.128812481727	1
1656	63578566	3417.068450790853	4
1656	65471856	3477.068450790853	6
1656	66908055	3537.068450790853	3
1749	66828343	3533.065823953273	13
1748	66828343	3533.065823953273	2
vector 1770 World.node[924].appl.middleware.ExampleService proof_size ETV
vector 1771 World.node[924].appl.middleware.ExampleService proof_requested ETV
1687	63410754	3412.01427662815	16
1687	65282226	3472.01427662815	19
1687	66811141	3532.01427662815	7
1686	63410754	3412.01427662815	3
1686	65282226	3472.01427662815	5
1686	66811141	3532.01427662815	5
1573	57609396	3205.007580371527	3
1573	58968561	3265.007580371527	24
1573	60604796	3325.007580371527	19
1573	62459932	3385.007580371527	21
1573	64508287	3445.007580371527	20
1573	66236785	3505.007580371527	28
1573	67530051	3565.007580371527	22
1572	57609396	3205.007580371527	2
1572	58968561	3265.007580371527	1
1572	60604796	3325.007580371527	3
1572	62459932	3385.007580371527	5
1572	64508287	3445.007580371527	4
1572	66236785	3505.007580371527	3
1572	67530051	3565.007580371527	6
vector 1772 World.node[931].appl.middleware.ExampleService proof_size ETV
vector 1773 World.node[931].appl.middleware.ExampleService proof_requested ETV
1735	66197645	3503.054625432473	10
1735	67476996	3563.054625432473	9
1734	66197645	3503.054625432473	7
1734	67476996	3563.054625432473	3
vector 1774 World.node[932].appl.middleware.ExampleService proof_size ETV
vector 1775 World.node[932].appl.middleware.ExampleService proof_requested ETV
vector 1776 World.node[936].appl.middleware.ExampleService proof_size ETV
vector 1777 World.node[936].appl.middleware.ExampleService proof_requested ETV
vector 1778 World.node[935].appl.middleware.ExampleService proof_size ETV
vector 1779 World.node[935].appl.middleware.ExampleService proof_requested ETV
vector 1780 World.node[937].appl.middleware.ExampleService proof_size ETV
vector 1781 World.node[937].appl.middleware.ExampleService proof_requested ETV
1581	57847899	3216.002155976417	7
1581	59246919	3276.002155976417	19
1581	60937124	3336.002155976417	18
1581	62866460	3396.002155976417	16
1581	64790305	3456.002155976417	18
1581	66469448	3516.002155976417	15
1581	67767070	3576.002155976417	13
1580	57847899	3216.002155976417	5
1580	59246919	3276.002155976417	5
1580	60937124	3336.002155976417	4
1580	62866460	3396.002155976417	5
1580	64790305	3456.002155976417	7
1580	66469448	3516.002155976417	3
1580	67767070	3576.002155976417	1
vector 1782 World.node[933].appl.middleware.ExampleService proof_size ETV
vector 1783 World.node[933].appl.middleware.ExampleService proof_requested ETV
vector 1784 World.node[939].appl.middleware.ExampleService proof_size ETV
vector 1785 World.node[939].appl.middleware.ExampleService proof_requested ETV
1703	64043610	3430.017350135208	2
1703	65905345	3490.017350135208	14
1703	67172140	3550.017350135208	6
1703	68467098	3610.017350135208	22
1702	64043610	3430.017350135208	1
1702	65905345	3490.017350135208	5
1702	67172140	3550.017350135208	0
1702	68467098	3610.017350135208	4
1705	64045356	3430.038208744768	21
1705	65906734	3490.038208744768	14
1705	67172772	3550.038208744768	13
1705	68468135	3610.038208744768	8
1704	64045356	3430.038208744768	5
1704	65906734	3490.038208744768	4
1704	67172772	3550.038208744768	7
1704	68468135	3610.038208744768	5
1743	66693309	3526.051357819326	7
1743	67964482	3586.051357819326	9
1742	66693309	3526.051357819326	3
1742	67964482	3586.051357819326	5
1723	65683929	3483.067855755682	12
1723	67023464	3543.067855755682	12
1723	68300656	3603.067855755682	2
1722	65683929	3483.067855755682	6
1722	67023464	3543.067855755682	5
1722	68300656	3603.067855755682	1
1759	67217054	3552.085263648676	17
1759	68512198	3612.085263648676	20
1758	67217054	3552.085263648676	3
1758	68512198	3612.085263648676	4
1621	59568932	3288.007942408812	6
1621	61341167	3348.007942408812	10
1621	63287652	3408.007942408812	10
1621	65152160	3468.007942408812	31
1621	66732395	3528.007942408812	7
1621	68001468	3588.007942408812	13
1620	59568932	3288.007942408812	1
1620	61341167	3348.007942408812	5
1620	63287652	3408.007942408812	2
1620	65152160	3468.007942408812	8
1620	66732395	3528.007942408812	3
1620	68001468	3588.007942408812	2
1763	67421884	3561.043314359197	11
1763	68674997	3621.043314359197	1
1762	67421884	3561.043314359197	7
1762	68674997	3621.043314359197	0
1591	58337121	3239.089082112047	3
1591	59879683	3299.089082112047	17
1591	61671591	3359.089082112047	18
1591	63644229	3419.089082112047	19
1591	65543379	3479.089082112047	21
1591	66943562	3539.089082112047	19
1591	68210776	3599.089082112047	11
1590	58337121	3239.089082112047	0
1590	59879683	3299.089082112047	3
1590	61671591	3359.089082112047	1
1590	63644229	3419.089082112047	5
1590	65543379	3479.089082112047	7
1590	66943562	3539.089082112047	4
1590	68210776	3599.089082112047	4
1777	68089326	3593.03002632577	3
1776	68089326	3593.03002632577	1
1717	65219513	3470.045916125691	6
1717	66772080	3530.045916125691	8
1717	68037937	3590.045916125691	12
1716	65219513	3470.045916125691	3
1716	66772080	3530.045916125691	2
1716	68037937	3590.045916125691	2
vector 1786 World.node[941].appl.middleware.ExampleService proof_size ETV
vector 1787 World.node[941].appl.middleware.ExampleService proof_requested ETV
1753	67024365	3543.087422076683	6
1753	68231731	3600.103428583491	1
1752	67024365	3543.087422076683	0
1752	68231731	3600.103428583491	1
vector 1788 World.node[938].appl.middleware.ExampleService proof_size ETV
vector 1789 World.node[938].appl.middleware.ExampleService proof_requested ETV
vector 1790 World.node[942].appl.middleware.ExampleService proof_size ETV
vector 1791 World.node[942].appl.middleware.ExampleService proof_requested ETV
vector 1792 World.node[940].appl.middleware.ExampleService proof_size ETV
vector 1793 World.node[940].appl.middleware.ExampleService proof_requested ETV
1747	66736573	3528.091236495506	13
1747	68004401	3588.091236495506	25
1746	66736573	3528.091236495506	2
1746	68004401	3588.091236495506	8
vector 1794 World.node[943].appl.middleware.ExampleService proof_size ETV
vector 1795 World.node[943].appl.middleware.ExampleService proof_requested ETV
1767	67504177	3564.073631651606	11
1767	68733045	3624.073631651606	4
1766	67504177	3564.073631651606	3
1766	68733045	3624.073631651606	1
1783	68299680	3603.056231303583	9
1783	69176141	3660.175348432033	2
1782	68299680	3603.056231303583	3
1782	69176141	3660.175348432033	2
1721	65610940	3481.077110188291	22
1721	66986480	3541.077110188291	7
1721	68251331	3601.077110188291	11
1721	69188236	3661.077110188291	10
1720	65610940	3481.077110188291	6
1720	66986480	3541.077110188291	3
1720	68251331	3601.077110188291	2
1720	69188236	3661.077110188291	4
1587	58314900	3238.044728574669	13
1587	59843866	3298.044728574669	17
1587	61636693	3358.044728574669	19
1587	63605497	3418.044728574669	31
1587	65504303	3478.044728574669	13
1587	66925800	3538.044728574669	5
1587	68191877	3598.044728574669	7
1587	69147206	3658.044728574669	10
1586	58314900	3238.044728574669	8
1586	59843866	3298.044728574669	3
1586	61636693	3358.044728574669	3
1586	63605497	3418.044728574669	4
1586	65504303	3478.044728574669	8
1586	66925800	3538.044728574669	1
1586	68191877	3598.044728574669	2
1586	69147206	3658.044728574669	3
1725	65685615	3483.095093967626	24
1725	67024828	3543.095093967626	12
1725	68303011	3603.095093967626	19
1725	69212285	3663.095093967626	20
1724	65685615	3483.095093967626	0
1724	67024828	3543.095093967626	3
1724	68303011	3603.095093967626	0
1724	69212285	3663.095093967626	8
1771	67728296	3574.087370668468	10
1771	68871578	3634.087370668468	6
1770	67728296	3574.087370668468	2
1770	68871578	3634.087370668468	0
1755	67147171	3549.044265953405	6
1755	68443355	3609.044265953405	14
1755	69283393	3669.044265953405	11
1754	67147171	3549.044265953405	1
1754	68443355	3609.044265953405	5
1754	69283393	3669.044265953405	6
1693	63581159	3417.082919102465	25
1693	65473085	3477.082919102465	22
1693	66908479	3537.082919102465	12
1693	68175547	3597.082919102465	11
1693	69136867	3657.082919102465	6
1692	63581159	3417.082919102465	6
1692	65473085	3477.082919102465	1
1692	66908479	3537.082919102465	2
1692	68175547	3597.082919102465	1
1692	69136867	3657.082919102465	0
1757	67213051	3552.001100641699	8
1757	68508393	3612.001100641699	9
1757	69282601	3669.001471096905	1
1756	67213051	3552.001100641699	1
1756	68508393	3612.001100641699	3
1756	69282601	3669.001471096905	1
1789	68934873	3639.081254644808	7
1789	69496602	3696.158555333394	1
1788	68934873	3639.081254644808	3
1788	69496602	3696.158555333394	1
1775	68075577	3592.058160998044	17
1775	69074840	3652.058160998044	4
1774	68075577	3592.058160998044	5
1774	69074840	3652.058160998044	2
1791	68984101	3643.079853526945	9
1791	69520153	3700.140218992256	1
1790	68984101	3643.079853526945	3
1790	69520153	3700.140218992256	1
1773	68020271	3589.057598972553	20
1773	69550986	3706.057968086586	1
1772	68020271	3589.057598972553	7
1772	69550986	3706.057968086586	1
1727	65739852	3485.002104522381	26
1727	67056556	3545.002104522381	15
1727	68343173	3605.002104522381	20
1727	69233394	3665.002104522381	19
1726	65739852	3485.002104522381	2
1726	67056556	3545.002104522381	0
1726	68343173	3605.002104522381	3
1726	69233394	3665.002104522381	7
1719	65469086	3477.036855407921	10
1719	66906869	3537.036855407921	4
1719	68173329	3597.036855407921	25
1719	69135467	3657.036855407921	3
1718	65469086	3477.036855407921	6
1718	66906869	3537.036855407921	2
1718	68173329	3597.036855407921	8
1718	69135467	3657.036855407921	1
1795	69044789	3649.009012968908	9
1795	69565367	3709.009012968908	4
1794	69044789	3649.009012968908	1
1794	69565367	3709.009012968908	2
1779	68154697	3596.072272956977	12
1779	69124618	3656.072272956977	20
1779	69592912	3716.072272956977	9
1778	68154697	3596.072272956977	3
1778	69124618	3656.072272956977	4
1778	69592912	3716.072272956977	1
1741	66572228	3520.189805768542	5
1741	67901369	3583.017196876439	14
1741	68947643	3640.096970823197	3
1741	69520019	3700.118273244732	2
1740	66572228	3520.189805768542	5
1740	67901369	3583.017196876439	2
1740	68947643	3640.096970823197	3
1740	69520019	3700.118273244732	2
1697	63797954	3423.070386177045	30
1697	65684114	3483.070386177045	30
1697	67023598	3543.070386177045	16
1697	68300792	3603.070386177045	19
1697	69211266	3663.070386177045	13
1697	69615572	3723.070386177045	12
1696	63797954	3423.070386177045	8
1696	65684114	3483.070386177045	8
1696	67023598	3543.070386177045	13
1696	68300792	3603.070386177045	5
1696	69211266	3663.070386177045	5
1696	69615572	3723.070386177045	2
1751	66965086	3540.106025036763	2
1751	68299514	3603.0551352337	13
1751	69210707	3663.0551352337	9
1751	69615502	3723.0551352337	3
1750	66965086	3540.106025036763	2
1750	68299514	3603.0551352337	1
1750	69210707	3663.0551352337	6
1750	69615502	3723.0551352337	0
1731	66051806	3496.129019406275	4
1731	67302148	3556.029019406275	12
1731	68580281	3616.029019406275	5
1731	69349191	3676.029019406275	4
1730	66051806	3496.129019406275	1
1730	67302148	3556.029019406275	3
1730	68580281	3616.029019406275	2
1730	69349191	3676.029019406275	2
1793	68986436	3643.098439216567	17
1793	69535919	3703.098439216567	1
1793	69745398	3763.098439216567	3
1792	68986436	3643.098439216567	4
1792	69535919	3703.098439216567	0
1792	69745398	3763.098439216567	0
1785	68467380	3610.019167517731	7
1785	69261557	3667.079533302149	1
1785	69636732	3730.019167517731	3
1784	68467380	3610.019167517731	4
1784	69261557	3667.079533302149	1
1784	69636732	3730.019167517731	2
1675	62945615	3398.026366167516	10
1675	64851096	3458.026366167516	12
1675	66519144	3518.026366167516	17
1675	67806031	3578.026366167516	12
1675	68920931	3638.026366167516	17
1675	69506877	3698.026366167516	7
1674	62945615	3398.026366167516	7
1674	64851096	3458.026366167516	5
1674	66519144	3518.026366167516	2
1674	67806031	3578.026366167516	4
1674	68920931	3638.026366167516	4
1674	69506877	3698.026366167516	2
1709	64558861	3447.051523125474	21
1709	66273813	3507.051523125474	18
1709	67574330	3567.051523125474	18
1709	68776222	3627.051523125474	16
1709	69436800	3687.051523125474	10
1709	69687840	3747.051523125474	8
1708	64558861	3447.051523125474	8
1708	66273813	3507.051523125474	4
1708	67574330	3567.051523125474	8
1708	68776222	3627.051523125474	4
1708	69436800	3687.051523125474	0
1708	69687840	3747.051523125474	3
1729	65937054	3491.064540249412	20
1729	67192304	3551.064540249412	6
1729	68488687	3611.064540249412	19
1729	69303673	3671.064540249412	10
1729	69639265	3731.064540249412	9
1729	69789964	3791.064540249412	5
1728	65937054	3491.064540249412	6
1728	67192304	3551.064540249412	3
1728	68488687	3611.064540249412	6
1728	69303673	3671.064540249412	1
1728	69639265	3731.064540249412	0
1728	69789964	3791.064540249412	2
1781	68190507	3598.000520164124	11
1781	69146370	3658.000520164124	8
1781	69599193	3718.000520164124	2
1781	69771305	3778.000520164124	2
1780	68190507	3598.000520164124	0
1780	69146370	3658.000520164124	1
1780	69599193	3718.000520164124	1
1780	69771305	3778.000520164124	1
1699	63873275	3425.077429342177	23
1699	65746565	3485.077429342177	21
1699	67059686	3545.077429342177	13
1699	68347010	3605.077429342177	31
1699	69235300	3665.077429342177	10
1699	69612770	3722.160626300681	2
1699	69777593	3782.160634495851	1
1698	63873275	3425.077429342177	9
1698	65746565	3485.077429342177	5
1698	67059686	3545.077429342177	0
1698	68347010	3605.077429342177	8
1698	69235300	3665.077429342177	1
1698	69612770	3722.160626300681	2
1698	69777593	3782.160634495851	1
1769	67550753	3566.030412739539	9
1769	68760606	3626.030412739539	18
1769	69429863	3686.030412739539	10
1769	69684339	3746.030412739539	8
1769	69805121	3806.030412739539	2
1768	67550753	3566.030412739539	2
1768	68760606	3626.030412739539	5
1768	69429863	3686.030412739539	0
1768	69684339	3746.030412739539	0
1768	69805121	3806.030412739539	0
1761	67402664	3560.211546051574	4
1761	68714319	3623.098003700632	24
1761	69408845	3683.098003700632	13
1761	69673875	3743.098003700632	8
1761	69803249	3803.098003700632	2
1761	69846748	3863.098003700632	2
1760	67402664	3560.211546051574	4
1760	68714319	3623.098003700632	8
1760	69408845	3683.098003700632	4
1760	69673875	3743.098003700632	0
1760	69803249	3803.098003700632	1
1760	69846748	3863.098003700632	0
1691	63576963	3417.050914285448	24
1691	65470003	3477.050914285448	22
1691	66907494	3537.050914285448	12
1691	68173935	3597.050914285448	28
1691	69135806	3657.050914285448	14
1691	69586328	3714.060633954422	2
1691	69824181	3834.083571922582	2
1690	63576963	3417.050914285448	2
1690	65470003	3477.050914285448	4
1690	66907494	3537.050914285448	2
1690	68173935	3597.050914285448	5
1690	69135806	3657.050914285448	5
1690	69586328	3714.060633954422	2
1690	69824181	3834.083571922582	2
1733	66157346	3501.189129697608	2
1733	67504888	3564.086819805042	19
1733	68733803	3624.086819805042	16
1733	69417141	3684.086819805042	21
1733	69677426	3744.086819805042	10
1733	69801649	3801.147190129348	1
1733	69845660	3861.147186294303	1
1732	66157346	3501.189129697608	2
1732	67504888	3564.086819805042	5
1732	68733803	3624.086819805042	5
1732	69417141	3684.086819805042	1
1732	69677426	3744.086819805042	2
1732	69801649	3801.147190129348	1
1732	69845660	3861.147186294303	1
1745	66694984	3526.084204748296	7
1745	67968218	3586.084204748296	26
1745	69017741	3646.084204748296	17
1745	69551481	3706.084204748296	9
1745	69750855	3766.084204748296	6
1745	69816347	3823.084575006299	1
1744	66694984	3526.084204748296	2
1744	67968218	3586.084204748296	8
1744	69017741	3646.084204748296	0
1744	69551481	3706.084204748296	1
1744	69750855	3766.084204748296	1
1744	69816347	3823.084575006299	1
1765	67475550	3563.023464494338	16
1765	68709277	3623.023464494338	18
1765	69406830	3683.023464494338	10
1765	69672833	3743.023464494338	8
1765	69803044	3803.023464494338	4
1765	69846670	3863.023464494338	3
1764	67475550	3563.023464494338	4
1764	68709277	3623.023464494338	4
1764	69406830	3683.023464494338	1
1764	69672833	3743.023464494338	1
1764	69803044	3803.023464494338	0
1764	69846670	3863.023464494338	0
1787	68844742	3632.058290634956	17
1787	69464999	3692.058290634956	10
1787	69707219	3752.058290634956	6
1787	69809241	3812.058290634956	4
1787	69850116	3872.058290634956	2
1786	68844742	3632.058290634956	3
1786	69464999	3692.058290634956	0
1786	69707219	3752.058290634956	2
1786	69809241	3812.058290634956	1
1786	69850116	3872.058290634956	0

