file 312636 1573989637                                          
version 2
run Obstacles-0-20191117-12:13:26-19092
attr configname Obstacles
attr datetime 20191117-12:13:26
attr experiment Obstacles
attr inifile omnetpp.ini
attr iterationvars $0=0
attr iterationvarsf 0-
attr measurement $0=0
attr network artery.veins.World
attr processid 19092
attr repetition 0
attr replication #0
attr resultdir results
attr runnumber 0
attr seedset 0
param *.traci.launcher.sumocfg "\"Obstacles/run.sumo.cfg\""
param *.withObstacles true
param *.obstacles.obstacles "xmldoc(\"config_obstacles.xml\", \"//AnalogueModel[@type='SimpleObstacleShadowing']/obstacles\")"
param *.node[*].nic.mac1609_4.txPower 20mW
param *.node[*].nic.phy80211p.decider "xmldoc(\"config_obstacles.xml\")"
param *.node[*].nic.phy80211p.analogueModels "xmldoc(\"config_obstacles.xml\")"
param *.node[*].applType "\"artery.veins.ApplicationLayer\""
param *.node[*].appl.middleware.updateInterval 0.1s
param *.node[*].appl.middleware.datetime "\"2013-06-01 12:35:00\""
param *.node[*].appl.middleware.services "xmldoc(\"services.xml\")"
param *.node[*].appl.middleware.ExampleService.DecisionLogic 0
param *.node[*].appl.middleware.ExampleService.NeighboringWindow 60
param *.traci.core.version -1
param *.traci.launcher.typename "\"PosixLauncher\""
param *.playgroundSizeX 4000m
param *.playgroundSizeY 4000m
param *.playgroundSizeZ 50m
param *.connectionManager.maxInterfDist 1500m
param *.connectionManager.sendDirect true
param *.connectionManager.coreDebug false

vector 0 World.node[3].appl.middleware.ExampleService proof_size ETV
vector 1 World.node[3].appl.middleware.ExampleService proof_requested ETV
1	1607 25 6752 6752 25.123870982329 25.123870982329 1 1 1 1 1
0	1632 25 6752 6752 25.123870982329 25.123870982329 1 1 1 1 1
vector 2 World.node[11].appl.middleware.ExampleService proof_size ETV
vector 3 World.node[11].appl.middleware.ExampleService proof_requested ETV
vector 4 World.node[12].appl.middleware.ExampleService proof_size ETV
vector 5 World.node[12].appl.middleware.ExampleService proof_requested ETV
vector 6 World.node[0].appl.middleware.ExampleService proof_size ETV
vector 7 World.node[0].appl.middleware.ExampleService proof_requested ETV
vector 8 World.node[1].appl.middleware.ExampleService proof_size ETV
vector 9 World.node[1].appl.middleware.ExampleService proof_requested ETV
vector 10 World.node[8].appl.middleware.ExampleService proof_size ETV
vector 11 World.node[8].appl.middleware.ExampleService proof_requested ETV
vector 12 World.node[5].appl.middleware.ExampleService proof_size ETV
vector 13 World.node[5].appl.middleware.ExampleService proof_requested ETV
vector 14 World.node[16].appl.middleware.ExampleService proof_size ETV
vector 15 World.node[16].appl.middleware.ExampleService proof_requested ETV
vector 16 World.node[15].appl.middleware.ExampleService proof_size ETV
vector 17 World.node[15].appl.middleware.ExampleService proof_requested ETV
vector 18 World.node[13].appl.middleware.ExampleService proof_size ETV
vector 19 World.node[13].appl.middleware.ExampleService proof_requested ETV
vector 20 World.node[19].appl.middleware.ExampleService proof_size ETV
vector 21 World.node[19].appl.middleware.ExampleService proof_requested ETV
vector 22 World.node[10].appl.middleware.ExampleService proof_size ETV
vector 23 World.node[10].appl.middleware.ExampleService proof_requested ETV
vector 24 World.node[14].appl.middleware.ExampleService proof_size ETV
vector 25 World.node[14].appl.middleware.ExampleService proof_requested ETV
vector 26 World.node[4].appl.middleware.ExampleService proof_size ETV
vector 27 World.node[4].appl.middleware.ExampleService proof_requested ETV
vector 28 World.node[6].appl.middleware.ExampleService proof_size ETV
vector 29 World.node[6].appl.middleware.ExampleService proof_requested ETV
7	3695 26 36923 36923 51.068642886034 51.068642886034 1 2 2 2 4
6	3721 26 36923 36923 51.068642886034 51.068642886034 1 2 2 2 4
vector 30 World.node[18].appl.middleware.ExampleService proof_size ETV
vector 31 World.node[18].appl.middleware.ExampleService proof_requested ETV
9	3894 26 37886 37886 51.220385223693 51.220385223693 1 2 2 2 4
8	3920 26 37886 37886 51.220385223693 51.220385223693 1 2 2 2 4
vector 32 World.node[26].appl.middleware.ExampleService proof_size ETV
vector 33 World.node[26].appl.middleware.ExampleService proof_requested ETV
vector 34 World.node[20].appl.middleware.ExampleService proof_size ETV
vector 35 World.node[20].appl.middleware.ExampleService proof_requested ETV
vector 36 World.node[25].appl.middleware.ExampleService proof_size ETV
vector 37 World.node[25].appl.middleware.ExampleService proof_requested ETV
vector 38 World.node[22].appl.middleware.ExampleService proof_size ETV
vector 39 World.node[22].appl.middleware.ExampleService proof_requested ETV
vector 40 World.node[24].appl.middleware.ExampleService proof_size ETV
vector 41 World.node[24].appl.middleware.ExampleService proof_requested ETV
vector 42 World.node[28].appl.middleware.ExampleService proof_size ETV
vector 43 World.node[28].appl.middleware.ExampleService proof_requested ETV
vector 44 World.node[17].appl.middleware.ExampleService proof_size ETV
vector 45 World.node[17].appl.middleware.ExampleService proof_requested ETV
vector 46 World.node[23].appl.middleware.ExampleService proof_size ETV
vector 47 World.node[23].appl.middleware.ExampleService proof_requested ETV
vector 48 World.node[29].appl.middleware.ExampleService proof_size ETV
vector 49 World.node[29].appl.middleware.ExampleService proof_requested ETV
vector 50 World.node[7].appl.middleware.ExampleService proof_size ETV
vector 51 World.node[7].appl.middleware.ExampleService proof_requested ETV
29	5414 29 204445 204445 103.008529556706 103.008529556706 1 1 1 1 1
28	5443 29 204445 204445 103.008529556706 103.008529556706 1 0 0 0 0
21	5472 28 162412 162412 94.009973275778 94.009973275778 1 6 6 6 36
20	5500 28 162412 162412 94.009973275778 94.009973275778 1 1 1 1 1
39	5528 29 388878 388878 132.002488656738 132.002488656738 1 7 7 7 49
38	5557 29 388878 388878 132.002488656738 132.002488656738 1 1 1 1 1
vector 52 World.node[33].appl.middleware.ExampleService proof_size ETV
vector 53 World.node[33].appl.middleware.ExampleService proof_requested ETV
vector 54 World.node[27].appl.middleware.ExampleService proof_size ETV
vector 55 World.node[27].appl.middleware.ExampleService proof_requested ETV
vector 56 World.node[30].appl.middleware.ExampleService proof_size ETV
vector 57 World.node[30].appl.middleware.ExampleService proof_requested ETV
vector 58 World.node[36].appl.middleware.ExampleService proof_size ETV
vector 59 World.node[36].appl.middleware.ExampleService proof_requested ETV
19	6174 57 133583 529707 87.015939371008 147.015939371008 2 6 9 15 117
18	6231 57 133583 529707 87.015939371008 147.015939371008 2 2 3 5 13
vector 60 World.node[38].appl.middleware.ExampleService proof_size ETV
vector 61 World.node[38].appl.middleware.ExampleService proof_requested ETV
11	6435 57 72821 350184 67.051001685322 127.051001685322 2 2 11 13 125
10	6492 56 72821 350184 67.051001685322 127.051001685322 2 1 2 3 5
vector 62 World.node[32].appl.middleware.ExampleService proof_size ETV
vector 63 World.node[32].appl.middleware.ExampleService proof_requested ETV
vector 64 World.node[35].appl.middleware.ExampleService proof_size ETV
vector 65 World.node[35].appl.middleware.ExampleService proof_requested ETV
vector 66 World.node[31].appl.middleware.ExampleService proof_size ETV
vector 67 World.node[31].appl.middleware.ExampleService proof_requested ETV
65	6989 29 737794 737794 169.087869163183 169.087869163183 1 2 2 2 4
64	7018 29 737794 737794 169.087869163183 169.087869163183 1 1 1 1 1
17	7047 57 122606 500114 84.041693394911 144.041693394911 2 4 9 13 97
16	7104 57 122606 500114 84.041693394911 144.041693394911 2 0 4 4 16
15	7161 57 89072 433012 74.110445192224 137.050082818582 2 1 10 11 101
14	7218 56 89072 433012 74.110445192224 137.050082818582 2 1 2 3 5
vector 68 World.node[34].appl.middleware.ExampleService proof_size ETV
vector 69 World.node[34].appl.middleware.ExampleService proof_requested ETV
25	7421 57 167445 579239 95.077487978176 152.221799224293 2 5 7 12 74
24	7478 57 167445 579239 95.077487978176 152.221799224293 2 1 7 8 50
vector 70 World.node[37].appl.middleware.ExampleService proof_size ETV
vector 71 World.node[37].appl.middleware.ExampleService proof_requested ETV
23	7682 56 162563 596479 94.01843625973 154.01843625973 2 5 13 18 194
22	7738 55 162563 596479 94.01843625973 154.01843625973 2 1 2 3 5
vector 72 World.node[47].appl.middleware.ExampleService proof_size ETV
vector 73 World.node[47].appl.middleware.ExampleService proof_requested ETV
vector 74 World.node[48].appl.middleware.ExampleService proof_size ETV
vector 75 World.node[48].appl.middleware.ExampleService proof_requested ETV
vector 76 World.node[43].appl.middleware.ExampleService proof_size ETV
vector 77 World.node[43].appl.middleware.ExampleService proof_requested ETV
51	8234 29 489382 489382 143.060647546221 143.060647546221 1 4 4 4 16
50	8263 29 489382 489382 143.060647546221 143.060647546221 1 1 1 1 1
vector 78 World.node[39].appl.middleware.ExampleService proof_size ETV
vector 79 World.node[39].appl.middleware.ExampleService proof_requested ETV
57	8439 29 605421 605421 155.095502159907 155.095502159907 1 8 8 8 64
56	8468 29 605421 605421 155.095502159907 155.095502159907 1 6 6 6 36
vector 80 World.node[42].appl.middleware.ExampleService proof_size ETV
vector 81 World.node[42].appl.middleware.ExampleService proof_requested ETV
vector 82 World.node[49].appl.middleware.ExampleService proof_size ETV
vector 83 World.node[49].appl.middleware.ExampleService proof_requested ETV
vector 84 World.node[44].appl.middleware.ExampleService proof_size ETV
vector 85 World.node[44].appl.middleware.ExampleService proof_requested ETV
vector 86 World.node[51].appl.middleware.ExampleService proof_size ETV
vector 87 World.node[51].appl.middleware.ExampleService proof_requested ETV
vector 88 World.node[46].appl.middleware.ExampleService proof_size ETV
vector 89 World.node[46].appl.middleware.ExampleService proof_requested ETV
vector 90 World.node[50].appl.middleware.ExampleService proof_size ETV
vector 91 World.node[50].appl.middleware.ExampleService proof_requested ETV
vector 92 World.node[41].appl.middleware.ExampleService proof_size ETV
vector 93 World.node[41].appl.middleware.ExampleService proof_requested ETV
55	9526 59 587350 1189704 153.074771334021 210.178351053927 2 3 8 11 73
54	9585 59 587350 1189704 153.074771334021 210.178351053927 2 3 4 7 25
53	9644 58 575792 1206441 152.05338426407 212.05338426407 2 7 10 17 149
52	9702 57 575792 1206441 152.05338426407 212.05338426407 2 4 4 8 32
vector 94 World.node[45].appl.middleware.ExampleService proof_size ETV
vector 95 World.node[45].appl.middleware.ExampleService proof_requested ETV
vector 96 World.node[54].appl.middleware.ExampleService proof_size ETV
vector 97 World.node[54].appl.middleware.ExampleService proof_requested ETV
67	10053 30 827409 827409 179.087447440322 179.087447440322 1 12 12 12 144
66	10083 29 827409 827409 179.087447440322 179.087447440322 1 2 2 2 4
41	10112 58 390290 982147 132.083528320165 192.083528320165 2 4 5 9 41
40	10170 58 390290 982147 132.083528320165 192.083528320165 2 2 3 5 13
5	10228 111 33251 1437192 49.090116217453 229.090116217453 4 4 9 26 182
4	10339 111 33251 1437192 49.090116217453 229.090116217453 4 1 2 5 7
vector 98 World.node[56].appl.middleware.ExampleService proof_size ETV
vector 99 World.node[56].appl.middleware.ExampleService proof_requested ETV
33	10597 89 250501 1507941 111.086780594769 234.064370253053 3 1 12 19 181
32	10686 88 250501 1507941 111.086780594769 234.064370253053 3 0 3 4 10
61	10774 59 626530 1312186 157.111113214873 220.082545418665 2 2 5 7 29
60	10833 59 626530 1312186 157.111113214873 220.082545418665 2 2 3 5 13
vector 100 World.node[62].appl.middleware.ExampleService proof_size ETV
vector 101 World.node[62].appl.middleware.ExampleService proof_requested ETV
vector 102 World.node[52].appl.middleware.ExampleService proof_size ETV
vector 103 World.node[52].appl.middleware.ExampleService proof_requested ETV
vector 104 World.node[57].appl.middleware.ExampleService proof_size ETV
vector 105 World.node[57].appl.middleware.ExampleService proof_requested ETV
vector 106 World.node[66].appl.middleware.ExampleService proof_size ETV
vector 107 World.node[66].appl.middleware.ExampleService proof_requested ETV
97	11488 30 1508972 1508972 234.085157320509 234.085157320509 1 9 9 9 81
96	11518 30 1508972 1508972 234.085157320509 234.085157320509 1 3 3 3 9
vector 108 World.node[58].appl.middleware.ExampleService proof_size ETV
vector 109 World.node[58].appl.middleware.ExampleService proof_requested ETV
35	11697 87 271375 1523869 115.08614762004 235.08614762004 3 2 14 26 300
34	11784 85 271375 1523869 115.08614762004 235.08614762004 3 0 8 11 73
vector 110 World.node[55].appl.middleware.ExampleService proof_size ETV
vector 111 World.node[55].appl.middleware.ExampleService proof_requested ETV
27	12018 88 178042 1311144 97.144912183922 220.029614019929 3 4 10 22 180
26	12106 87 178042 1311144 97.144912183922 220.029614019929 3 4 6 14 68
59	12193 60 613862 1255578 156.029450155259 216.029450155259 2 5 14 19 221
58	12253 59 613862 1255578 156.029450155259 216.029450155259 2 2 4 6 20
37	12312 90 355980 1695859 128.026674293354 248.026674293354 3 5 15 31 371
36	12402 88 355980 1695859 128.026674293354 248.026674293354 3 0 2 3 5
3	12490 111 23600 1391696 43.144913857348 226.079187956546 4 1 8 23 163
2	12601 111 23600 1391696 43.144913857348 226.079187956546 4 1 6 9 39
31	12712 89 227159 1402163 107.017763228761 227.017763228761 3 4 10 23 197
30	12801 88 227159 1402163 107.017763228761 227.017763228761 3 2 5 10 38
vector 112 World.node[59].appl.middleware.ExampleService proof_size ETV
vector 113 World.node[59].appl.middleware.ExampleService proof_requested ETV
vector 114 World.node[64].appl.middleware.ExampleService proof_size ETV
vector 115 World.node[64].appl.middleware.ExampleService proof_requested ETV
43	13187 91 424481 1810518 136.045007345057 256.045007345057 3 4 16 31 393
42	13278 89 424481 1810518 136.045007345057 256.045007345057 3 1 7 12 66
99	13367 30 1629294 1629294 243.054702930106 243.054702930106 1 9 9 9 81
98	13397 30 1629294 1629294 243.054702930106 243.054702930106 1 2 2 2 4
13	13427 112 74932 1739138 68.150230937639 251.08480082273 4 2 8 21 129
12	13539 112 74932 1739138 68.150230937639 251.08480082273 4 1 5 10 34
vector 116 World.node[72].appl.middleware.ExampleService proof_size ETV
vector 117 World.node[72].appl.middleware.ExampleService proof_requested ETV
vector 118 World.node[60].appl.middleware.ExampleService proof_size ETV
vector 119 World.node[60].appl.middleware.ExampleService proof_requested ETV
vector 120 World.node[61].appl.middleware.ExampleService proof_size ETV
vector 121 World.node[61].appl.middleware.ExampleService proof_requested ETV
vector 122 World.node[73].appl.middleware.ExampleService proof_size ETV
vector 123 World.node[73].appl.middleware.ExampleService proof_requested ETV
79	14247 59 1152172 1958425 207.01824044669 267.01824044669 2 7 12 19 193
78	14306 58 1152172 1958425 207.01824044669 267.01824044669 2 2 4 6 20
vector 124 World.node[65].appl.middleware.ExampleService proof_size ETV
vector 125 World.node[65].appl.middleware.ExampleService proof_requested ETV
vector 126 World.node[78].appl.middleware.ExampleService proof_size ETV
vector 127 World.node[78].appl.middleware.ExampleService proof_requested ETV
vector 128 World.node[69].appl.middleware.ExampleService proof_size ETV
vector 129 World.node[69].appl.middleware.ExampleService proof_requested ETV
vector 130 World.node[70].appl.middleware.ExampleService proof_size ETV
vector 131 World.node[70].appl.middleware.ExampleService proof_requested ETV
105	14960 64 1909482 2722257 263.094728461397 323.094728461397 2 13 14 27 365
104	15024 62 1909482 2722257 263.094728461397 323.094728461397 2 1 3 4 10
vector 132 World.node[74].appl.middleware.ExampleService proof_size ETV
vector 133 World.node[74].appl.middleware.ExampleService proof_requested ETV
63	15235 89 736776 2261116 169.068220134149 289.068220134149 3 5 7 18 110
62	15324 89 736776 2261116 169.068220134149 289.068220134149 3 0 3 4 10
vector 134 World.node[71].appl.middleware.ExampleService proof_size ETV
vector 135 World.node[71].appl.middleware.ExampleService proof_requested ETV
vector 136 World.node[75].appl.middleware.ExampleService proof_size ETV
vector 137 World.node[75].appl.middleware.ExampleService proof_requested ETV
vector 138 World.node[79].appl.middleware.ExampleService proof_size ETV
vector 139 World.node[79].appl.middleware.ExampleService proof_requested ETV
vector 140 World.node[77].appl.middleware.ExampleService proof_size ETV
vector 141 World.node[77].appl.middleware.ExampleService proof_requested ETV
139	16009 31 3000032 3000032 339.020931382151 339.020931382151 1 6 6 6 36
138	16040 31 3000032 3000032 339.020931382151 339.020931382151 1 2 2 2 4
vector 142 World.node[76].appl.middleware.ExampleService proof_size ETV
vector 143 World.node[76].appl.middleware.ExampleService proof_requested ETV
47	16220 120 452937 2616048 139.017063442827 316.095213524765 4 1 13 26 250
46	16340 119 452937 2616048 139.017063442827 316.095213524765 4 1 5 9 31
103	16459 63 1808098 2613072 256.008746318682 316.008746318682 2 9 11 20 202
102	16522 62 1808098 2613072 256.008746318682 316.008746318682 2 4 5 9 41
vector 144 World.node[80].appl.middleware.ExampleService proof_size ETV
vector 145 World.node[80].appl.middleware.ExampleService proof_requested ETV
71	16733 91 1013037 2597212 195.000076873251 315.000076873251 3 5 13 24 230
70	16824 90 1013037 2597212 195.000076873251 315.000076873251 3 2 5 9 33
77	16914 92 1107985 2721508 203.080946575291 323.080946575291 3 7 12 30 314
76	17006 90 1107985 2721508 203.080946575291 323.080946575291 3 2 5 9 33
vector 146 World.node[87].appl.middleware.ExampleService proof_size ETV
vector 147 World.node[87].appl.middleware.ExampleService proof_requested ETV
109	17245 63 2024054 2816978 272.035097026429 329.077175786672 2 1 14 15 197
108	17308 62 2024054 2816978 272.035097026429 329.077175786672 2 1 3 4 10
45	17370 122 428462 2662481 136.230198401389 319.062537817797 4 7 13 42 460
44	17492 119 428462 2662481 136.230198401389 319.062537817797 4 2 9 21 143
113	17611 61 2188542 3073917 283.01274396521 343.01274396521 2 2 13 15 173
112	17672 60 2188542 3073917 283.01274396521 343.01274396521 2 1 4 5 17
73	17732 91 1049695 2643956 198.021098246844 318.021098246844 3 4 11 22 186
72	17823 90 1049695 2643956 198.021098246844 318.021098246844 3 1 3 6 14
vector 148 World.node[84].appl.middleware.ExampleService proof_size ETV
vector 149 World.node[84].appl.middleware.ExampleService proof_requested ETV
83	18062 91 1221130 2889634 213.098194917152 333.098194917152 3 3 14 26 286
82	18153 90 1221130 2889634 213.098194917152 333.098194917152 3 1 3 7 19
vector 150 World.node[82].appl.middleware.ExampleService proof_size ETV
vector 151 World.node[82].appl.middleware.ExampleService proof_requested ETV
vector 152 World.node[92].appl.middleware.ExampleService proof_size ETV
vector 153 World.node[92].appl.middleware.ExampleService proof_requested ETV
111	18541 64 2042988 2887310 273.035597590543 333.035597590543 2 10 15 25 325
110	18605 62 2042988 2887310 273.035597590543 333.035597590543 2 1 7 8 50
vector 154 World.node[91].appl.middleware.ExampleService proof_size ETV
vector 155 World.node[91].appl.middleware.ExampleService proof_requested ETV
vector 156 World.node[81].appl.middleware.ExampleService proof_size ETV
vector 157 World.node[81].appl.middleware.ExampleService proof_requested ETV
vector 158 World.node[85].appl.middleware.ExampleService proof_size ETV
vector 159 World.node[85].appl.middleware.ExampleService proof_requested ETV
93	19114 90 1363168 3091901 224.092297886009 344.092297886009 3 6 9 22 166
92	19204 90 1363168 3091901 224.092297886009 344.092297886009 3 0 2 3 5
vector 160 World.node[94].appl.middleware.ExampleService proof_size ETV
vector 161 World.node[94].appl.middleware.ExampleService proof_requested ETV
69	19443 123 969313 3539931 191.078157270281 371.078157270281 4 10 14 47 561
68	19566 119 969313 3539931 191.078157270281 371.078157270281 4 2 5 15 61
119	19685 63 2476299 3447604 306.086072445079 366.086072445079 2 3 12 15 153
118	19748 62 2476299 3447604 306.086072445079 366.086072445079 2 0 3 3 9
81	19810 91 1198209 2855180 211.070852248999 331.070852248999 3 4 15 26 290
80	19901 90 1198209 2855180 211.070852248999 331.070852248999 3 1 4 7 21
vector 162 World.node[83].appl.middleware.ExampleService proof_size ETV
vector 163 World.node[83].appl.middleware.ExampleService proof_requested ETV
vector 164 World.node[96].appl.middleware.ExampleService proof_size ETV
vector 165 World.node[96].appl.middleware.ExampleService proof_requested ETV
vector 166 World.node[88].appl.middleware.ExampleService proof_size ETV
vector 167 World.node[88].appl.middleware.ExampleService proof_requested ETV
117	20438 63 2412065 3357330 301.054333059047 361.054333059047 2 2 19 21 365
116	20501 62 2412065 3357330 301.054333059047 361.054333059047 2 1 3 4 10
49	20563 121 454158 3689846 139.077822771645 379.077822771645 4 3 11 29 255
48	20684 119 454158 3689846 139.077822771645 379.077822771645 4 1 4 9 27
vector 168 World.node[100].appl.middleware.ExampleService proof_size ETV
vector 169 World.node[100].appl.middleware.ExampleService proof_requested ETV
vector 170 World.node[90].appl.middleware.ExampleService proof_size ETV
vector 171 World.node[90].appl.middleware.ExampleService proof_requested ETV
vector 172 World.node[99].appl.middleware.ExampleService proof_size ETV
vector 173 World.node[99].appl.middleware.ExampleService proof_requested ETV
vector 174 World.node[101].appl.middleware.ExampleService proof_size ETV
vector 175 World.node[101].appl.middleware.ExampleService proof_requested ETV
89	21403 123 1297920 4082074 219.044504904351 399.044504904351 4 9 11 41 423
88	21526 120 1297920 4082074 219.044504904351 399.044504904351 4 1 6 15 71
vector 176 World.node[103].appl.middleware.ExampleService proof_size ETV
vector 177 World.node[103].appl.middleware.ExampleService proof_requested ETV
vector 178 World.node[104].appl.middleware.ExampleService proof_size ETV
vector 179 World.node[104].appl.middleware.ExampleService proof_requested ETV
vector 180 World.node[89].appl.middleware.ExampleService proof_size ETV
vector 181 World.node[89].appl.middleware.ExampleService proof_requested ETV
vector 182 World.node[95].appl.middleware.ExampleService proof_size ETV
vector 183 World.node[95].appl.middleware.ExampleService proof_requested ETV
87	22246 122 1271460 4042241 217.030190451094 397.030190451094 4 6 11 34 314
86	22368 120 1271460 4042241 217.030190451094 397.030190451094 4 2 5 13 47
157	22488 31 3592520 3592520 374.053910508822 374.053910508822 1 3 3 3 9
156	22519 31 3592520 3592520 374.053910508822 374.053910508822 1 0 0 0 0
vector 184 World.node[106].appl.middleware.ExampleService proof_size ETV
vector 185 World.node[106].appl.middleware.ExampleService proof_requested ETV
vector 186 World.node[86].appl.middleware.ExampleService proof_size ETV
vector 187 World.node[86].appl.middleware.ExampleService proof_requested ETV
127	22850 62 2769702 3875442 326.149085905278 389.09326949555 2 1 13 14 170
126	22912 61 2769702 3875442 326.149085905278 389.09326949555 2 1 4 5 17
vector 188 World.node[105].appl.middleware.ExampleService proof_size ETV
vector 189 World.node[105].appl.middleware.ExampleService proof_requested ETV
vector 190 World.node[93].appl.middleware.ExampleService proof_size ETV
vector 191 World.node[93].appl.middleware.ExampleService proof_requested ETV
vector 192 World.node[97].appl.middleware.ExampleService proof_size ETV
vector 193 World.node[97].appl.middleware.ExampleService proof_requested ETV
85	23422 122 1243814 3996838 215.089723333903 395.089723333903 4 5 20 44 606
84	23544 120 1243814 3996838 215.089723333903 395.089723333903 4 1 8 15 83
125	23664 63 2693239 3729046 321.097002577758 381.097002577758 2 6 10 16 136
124	23727 62 2693239 3729046 321.097002577758 381.097002577758 2 2 4 6 20
vector 194 World.node[98].appl.middleware.ExampleService proof_size ETV
vector 195 World.node[98].appl.middleware.ExampleService proof_requested ETV
vector 196 World.node[102].appl.middleware.ExampleService proof_size ETV
vector 197 World.node[102].appl.middleware.ExampleService proof_requested ETV
vector 198 World.node[108].appl.middleware.ExampleService proof_size ETV
vector 199 World.node[108].appl.middleware.ExampleService proof_requested ETV
vector 200 World.node[110].appl.middleware.ExampleService proof_size ETV
vector 201 World.node[110].appl.middleware.ExampleService proof_requested ETV
107	24391 92 1947309 3816579 266.05962544498 386.05962544498 3 9 16 37 481
106	24483 90 1947309 3816579 266.05962544498 386.05962544498 3 2 4 9 29
vector 202 World.node[111].appl.middleware.ExampleService proof_size ETV
vector 203 World.node[111].appl.middleware.ExampleService proof_requested ETV
121	24724 95 2516956 4684645 309.095888865273 429.095888865273 3 5 12 27 269
120	24819 93 2516956 4684645 309.095888865273 429.095888865273 3 0 4 7 25
133	24912 63 2925019 3996840 335.090926780971 395.090926780971 2 1 18 19 325
132	24975 62 2925019 3996840 335.090926780971 395.090926780971 2 0 5 5 25
vector 204 World.node[112].appl.middleware.ExampleService proof_size ETV
vector 205 World.node[112].appl.middleware.ExampleService proof_requested ETV
vector 206 World.node[113].appl.middleware.ExampleService proof_size ETV
vector 207 World.node[113].appl.middleware.ExampleService proof_requested ETV
179	25339 31 4250909 4250909 408.015528589371 408.015528589371 1 8 8 8 64
178	25370 31 4250909 4250909 408.015528589371 408.015528589371 1 3 3 3 9
143	25401 63 3060347 4190079 342.103567782974 405.043208746659 2 1 10 11 101
142	25464 62 3060347 4190079 342.103567782974 405.043208746659 2 1 2 3 5
137	25526 95 2979068 5298014 338.009754053992 455.117766468282 3 3 16 29 365
136	25621 93 2979068 5298014 338.009754053992 455.117766468282 3 3 9 16 106
115	25714 95 2199689 4172237 284.073194085574 404.073194085574 3 8 16 35 441
114	25809 93 2199689 4172237 284.073194085574 404.073194085574 3 2 4 10 36
135	25902 95 2978789 5371453 338.007594530191 458.007594530191 3 9 16 40 562
134	25997 93 2978789 5371453 338.007594530191 458.007594530191 3 5 7 18 110
vector 208 World.node[117].appl.middleware.ExampleService proof_size ETV
vector 209 World.node[117].appl.middleware.ExampleService proof_requested ETV
159	26241 63 3615135 4890268 375.107513614287 438.047145077027 2 1 15 16 226
158	26304 62 3615135 4890268 375.107513614287 438.047145077027 2 1 6 7 37
vector 210 World.node[120].appl.middleware.ExampleService proof_size ETV
vector 211 World.node[120].appl.middleware.ExampleService proof_requested ETV
129	26517 94 2837878 5164854 330.074023129535 450.074023129535 3 5 10 24 206
128	26611 93 2837878 5164854 330.074023129535 450.074023129535 3 1 5 8 30
vector 212 World.node[116].appl.middleware.ExampleService proof_size ETV
vector 213 World.node[116].appl.middleware.ExampleService proof_requested ETV
vector 214 World.node[107].appl.middleware.ExampleService proof_size ETV
vector 215 World.node[107].appl.middleware.ExampleService proof_requested ETV
75	27006 151 1051176 4892278 198.07961660843 438.084409795126 5 2 15 38 418
74	27157 149 1051176 4892278 198.07961660843 438.084409795126 5 1 6 15 61
163	27306 64 3871828 5136900 389.010805510147 449.010805510147 2 16 19 35 617
162	27370 62 3871828 5136900 389.010805510147 449.010805510147 2 4 7 11 65
161	27432 63 3704121 4930408 380.014796608686 440.014796608686 2 4 10 14 116
160	27495 62 3704121 4930408 380.014796608686 440.014796608686 2 0 5 5 25
vector 216 World.node[115].appl.middleware.ExampleService proof_size ETV
vector 217 World.node[115].appl.middleware.ExampleService proof_requested ETV
vector 218 World.node[109].appl.middleware.ExampleService proof_size ETV
vector 219 World.node[109].appl.middleware.ExampleService proof_requested ETV
vector 220 World.node[118].appl.middleware.ExampleService proof_size ETV
vector 221 World.node[118].appl.middleware.ExampleService proof_requested ETV
vector 222 World.node[125].appl.middleware.ExampleService proof_size ETV
vector 223 World.node[125].appl.middleware.ExampleService proof_requested ETV
177	28161 63 4233514 5593841 407.076872115233 467.076872115233 2 6 10 16 136
176	28224 62 4233514 5593841 407.076872115233 467.076872115233 2 3 5 8 34
189	28286 62 4593738 5956673 425.037910805829 485.037910805829 2 4 8 12 80
188	28348 62 4593738 5956673 425.037910805829 485.037910805829 2 1 1 2 2
203	28410 32 5119841 5119841 448.080856595491 448.080856595491 1 13 13 13 169
202	28442 31 5119841 5119841 448.080856595491 448.080856595491 1 5 5 5 25
vector 224 World.node[123].appl.middleware.ExampleService proof_size ETV
vector 225 World.node[123].appl.middleware.ExampleService proof_requested ETV
91	28624 148 1310299 5425488 220.01295393093 460.01295393093 5 6 10 44 400
90	28772 145 1310299 5425488 220.01295393093 460.01295393093 5 1 5 13 43
199	28917 30 4932435 4932435 440.07300807992 440.07300807992 1 7 7 7 49
198	28947 30 4932435 4932435 440.07300807992 440.07300807992 1 2 2 2 4
vector 226 World.node[114].appl.middleware.ExampleService proof_size ETV
vector 227 World.node[114].appl.middleware.ExampleService proof_requested ETV
147	29128 96 3243702 5724909 353.087409837544 473.087409837544 3 10 12 32 344
146	29224 93 3243702 5724909 353.087409837544 473.087409837544 3 1 4 7 21
vector 228 World.node[122].appl.middleware.ExampleService proof_size ETV
vector 229 World.node[122].appl.middleware.ExampleService proof_requested ETV
167	29468 63 3952515 5237077 393.054924767022 453.054924767022 2 7 17 24 338
166	29531 62 3952515 5237077 393.054924767022 453.054924767022 2 3 5 8 34
175	29593 62 4191053 5550536 405.070163630694 465.070163630694 2 5 6 11 61
174	29655 62 4191053 5550536 405.070163630694 465.070163630694 2 1 3 4 10
vector 230 World.node[124].appl.middleware.ExampleService proof_size ETV
vector 231 World.node[124].appl.middleware.ExampleService proof_requested ETV
123	29868 124 2586946 6161051 314.160186674557 497.08896730456 4 2 16 39 481
122	29992 121 2586946 6161051 314.160186674557 497.08896730456 4 1 4 10 30
205	30113 32 5160748 5160748 450.005543358042 450.005543358042 1 16 16 16 256
204	30145 31 5160748 5160748 450.005543358042 450.005543358042 1 5 5 5 25
151	30176 94 3446576 5976354 366.061506788316 486.061506788316 3 4 13 26 266
150	30270 93 3446576 5976354 366.061506788316 486.061506788316 3 1 7 10 54
215	30363 31 5664963 5664963 470.154134570988 470.154134570988 1 5 5 5 25
214	30394 31 5664963 5664963 470.154134570988 470.154134570988 1 5 5 5 25
vector 232 World.node[119].appl.middleware.ExampleService proof_size ETV
vector 233 World.node[119].appl.middleware.ExampleService proof_requested ETV
101	30576 159 1795104 6129275 255.024292847933 495.024292847933 5 3 16 56 726
100	30735 155 1795104 6129275 255.024292847933 495.024292847933 5 3 7 25 135
141	30890 126 3036167 6582282 341.023665408301 521.023665408301 4 7 12 40 418
140	31016 124 3036167 6582282 341.023665408301 521.023665408301 4 3 4 14 50
vector 234 World.node[121].appl.middleware.ExampleService proof_size ETV
vector 235 World.node[121].appl.middleware.ExampleService proof_requested ETV
vector 236 World.node[133].appl.middleware.ExampleService proof_size ETV
vector 237 World.node[133].appl.middleware.ExampleService proof_requested ETV
vector 238 World.node[132].appl.middleware.ExampleService proof_size ETV
vector 239 World.node[132].appl.middleware.ExampleService proof_requested ETV
221	31593 32 5923186 5923186 483.078032360249 483.078032360249 1 11 11 11 121
220	31625 31 5923186 5923186 483.078032360249 483.078032360249 1 7 7 7 49
235	31656 31 6669951 6669951 526.032401368069 526.032401368069 1 2 2 2 4
234	31687 31 6669951 6669951 526.032401368069 526.032401368069 1 1 1 1 1
vector 240 World.node[126].appl.middleware.ExampleService proof_size ETV
vector 241 World.node[126].appl.middleware.ExampleService proof_requested ETV
vector 242 World.node[129].appl.middleware.ExampleService proof_size ETV
vector 243 World.node[129].appl.middleware.ExampleService proof_requested ETV
vector 244 World.node[131].appl.middleware.ExampleService proof_size ETV
vector 245 World.node[131].appl.middleware.ExampleService proof_requested ETV
95	32171 182 1446490 6684516 230.019449850312 527.019809476221 6 1 15 44 460
94	32353 180 1446490 6684516 230.019449850312 527.019809476221 6 1 6 15 55
185	32533 94 4475385 6832408 419.081865369063 536.142236635335 3 1 13 22 234
184	32627 93 4475385 6832408 419.081865369063 536.142236635335 3 1 8 17 129
231	32720 32 6273215 6273215 504.021838408383 504.021838408383 1 12 12 12 144
230	32752 31 6273215 6273215 504.021838408383 504.021838408383 1 7 7 7 49
187	32783 95 4513429 6900440 421.048330042441 541.048330042441 3 6 13 31 349
186	32878 93 4513429 6900440 421.048330042441 541.048330042441 3 3 6 12 54
vector 246 World.node[127].appl.middleware.ExampleService proof_size ETV
vector 247 World.node[127].appl.middleware.ExampleService proof_requested ETV
181	33122 95 4255188 6707423 408.084425077075 528.084425077075 3 4 16 31 393
180	33217 93 4255188 6707423 408.084425077075 528.084425077075 3 2 6 11 49
197	33310 64 4912344 6191027 439.069018460019 499.069018460019 2 10 15 25 325
196	33374 62 4912344 6191027 439.069018460019 499.069018460019 2 6 7 13 85
155	33436 94 3576901 6095686 373.035468717315 493.035468717315 3 4 18 30 404
154	33530 93 3576901 6095686 373.035468717315 493.035468717315 3 1 4 8 26
vector 248 World.node[139].appl.middleware.ExampleService proof_size ETV
vector 249 World.node[139].appl.middleware.ExampleService proof_requested ETV
vector 250 World.node[134].appl.middleware.ExampleService proof_size ETV
vector 251 World.node[134].appl.middleware.ExampleService proof_requested ETV
vector 252 World.node[135].appl.middleware.ExampleService proof_size ETV
vector 253 World.node[135].appl.middleware.ExampleService proof_requested ETV
229	34076 31 6205786 6205786 500.067215217208 500.067215217208 1 8 8 8 64
228	34107 31 6205786 6205786 500.067215217208 500.067215217208 1 6 6 6 36
233	34138 31 6549519 6549519 519.052648825012 519.052648825012 1 7 7 7 49
232	34169 31 6549519 6549519 519.052648825012 519.052648825012 1 4 4 4 16
145	34200 127 3212492 6752992 351.029391306359 531.029391306359 4 4 17 45 601
144	34327 124 3212492 6752992 351.029391306359 531.029391306359 4 4 8 24 160
vector 254 World.node[128].appl.middleware.ExampleService proof_size ETV
vector 255 World.node[128].appl.middleware.ExampleService proof_requested ETV
vector 256 World.node[130].appl.middleware.ExampleService proof_size ETV
vector 257 World.node[130].appl.middleware.ExampleService proof_requested ETV
169	34753 96 4063359 6529459 398.056564238318 518.056564238318 3 15 19 51 875
168	34849 95 4063359 6529459 398.056564238318 518.056564238318 3 8 11 29 285
247	34944 32 6992390 6992390 546.094562792592 546.094562792592 1 15 15 15 225
246	34976 31 6992390 6992390 546.094562792592 546.094562792592 1 5 5 5 25
vector 258 World.node[138].appl.middleware.ExampleService proof_size ETV
vector 259 World.node[138].appl.middleware.ExampleService proof_requested ETV
241	35158 32 6815456 6815456 535.049173438735 535.049173438735 1 20 20 20 400
240	35190 31 6815456 6815456 535.049173438735 535.049173438735 1 7 7 7 49
vector 260 World.node[143].appl.middleware.ExampleService proof_size ETV
vector 261 World.node[143].appl.middleware.ExampleService proof_requested ETV
vector 262 World.node[137].appl.middleware.ExampleService proof_size ETV
vector 263 World.node[137].appl.middleware.ExampleService proof_requested ETV
209	35523 64 5548805 6651396 465.026794015383 525.026794015383 2 10 15 25 325
208	35587 62 5548805 6651396 465.026794015383 525.026794015383 2 2 5 7 29
vector 264 World.node[136].appl.middleware.ExampleService proof_size ETV
vector 265 World.node[136].appl.middleware.ExampleService proof_requested ETV
vector 266 World.node[149].appl.middleware.ExampleService proof_size ETV
vector 267 World.node[149].appl.middleware.ExampleService proof_requested ETV
vector 268 World.node[140].appl.middleware.ExampleService proof_size ETV
vector 269 World.node[140].appl.middleware.ExampleService proof_requested ETV
253	36102 31 7136276 7136276 555.061357062985 555.061357062985 1 8 8 8 64
252	36133 31 7136276 7136276 555.061357062985 555.061357062985 1 5 5 5 25
201	36164 92 5045079 7299978 445.03691012687 565.03691012687 3 3 12 26 274
200	36256 90 5045079 7299978 445.03691012687 565.03691012687 3 0 5 7 29
149	36346 125 3370300 6918356 362.055116519495 542.055116519495 4 3 11 26 210
148	36471 124 3370300 6918356 362.055116519495 542.055116519495 4 0 3 7 17
vector 270 World.node[147].appl.middleware.ExampleService proof_size ETV
vector 271 World.node[147].appl.middleware.ExampleService proof_requested ETV
vector 272 World.node[148].appl.middleware.ExampleService proof_size ETV
vector 273 World.node[148].appl.middleware.ExampleService proof_requested ETV
173	36897 127 4169946 7600440 404.012695238064 584.012695238064 4 5 13 40 436
172	37024 124 4169946 7600440 404.012695238064 584.012695238064 4 1 6 12 50
vector 274 World.node[146].appl.middleware.ExampleService proof_size ETV
vector 275 World.node[146].appl.middleware.ExampleService proof_requested ETV
vector 276 World.node[142].appl.middleware.ExampleService proof_size ETV
vector 277 World.node[142].appl.middleware.ExampleService proof_requested ETV
171	37450 127 4098253 7538640 400.008827083395 580.008827083395 4 5 13 43 507
170	37577 124 4098253 7538640 400.008827083395 580.008827083395 4 1 6 12 50
vector 278 World.node[150].appl.middleware.ExampleService proof_size ETV
vector 279 World.node[150].appl.middleware.ExampleService proof_requested ETV
211	37852 93 5591422 7647311 467.027370588388 587.027370588388 3 5 9 22 170
210	37945 93 5591422 7647311 467.027370588388 587.027370588388 3 0 1 2 2
vector 280 World.node[155].appl.middleware.ExampleService proof_size ETV
vector 281 World.node[155].appl.middleware.ExampleService proof_requested ETV
191	38189 126 4617283 8018787 426.094022224704 606.094022224704 4 8 18 44 552
190	38315 124 4617283 8018787 426.094022224704 606.094022224704 4 2 5 13 47
165	38439 127 3892550 7381754 390.018458429491 570.018458429491 4 6 20 56 888
164	38566 124 3892550 7381754 390.018458429491 570.018458429491 4 2 7 14 66
193	38690 95 4707854 7058067 430.099250494502 550.099250494502 3 7 13 31 339
192	38785 93 4707854 7058067 430.099250494502 550.099250494502 3 2 4 9 29
vector 282 World.node[144].appl.middleware.ExampleService proof_size ETV
vector 283 World.node[144].appl.middleware.ExampleService proof_requested ETV
183	39029 126 4272176 7683617 409.006511643622 589.006511643622 4 4 16 42 564
182	39155 124 4272176 7683617 409.006511643622 589.006511643622 4 0 5 8 30
vector 284 World.node[141].appl.middleware.ExampleService proof_size ETV
vector 285 World.node[141].appl.middleware.ExampleService proof_requested ETV
195	39430 93 4845428 7151435 436.05581742893 556.05581742893 3 10 16 40 552
194	39523 90 4845428 7151435 436.05581742893 556.05581742893 3 2 7 14 78
vector 286 World.node[156].appl.middleware.ExampleService proof_size ETV
vector 287 World.node[156].appl.middleware.ExampleService proof_requested ETV
vector 288 World.node[145].appl.middleware.ExampleService proof_size ETV
vector 289 World.node[145].appl.middleware.ExampleService proof_requested ETV
213	39915 96 5657405 7702975 470.018869241979 590.018869241979 3 12 18 48 792
212	40011 93 5657405 7702975 470.018869241979 590.018869241979 3 5 7 18 110
279	40104 31 8022605 8022605 606.178386047114 606.178386047114 1 2 2 2 4
278	40135 31 8022605 8022605 606.178386047114 606.178386047114 1 2 2 2 4
257	40166 32 7284396 7284396 564.034137567063 564.034137567063 1 19 19 19 361
256	40198 31 7284396 7284396 564.034137567063 564.034137567063 1 8 8 8 64
vector 290 World.node[157].appl.middleware.ExampleService proof_size ETV
vector 291 World.node[157].appl.middleware.ExampleService proof_requested ETV
243	40380 62 6816184 7802528 535.08177532102 595.08177532102 2 11 13 24 290
242	40442 60 6816184 7802528 535.08177532102 595.08177532102 2 2 2 4 8
153	40502 156 3467034 8039263 367.081580028334 607.081580028334 5 8 15 47 481
152	40658 155 3467034 8039263 367.081580028334 607.081580028334 5 1 6 14 54
vector 292 World.node[158].appl.middleware.ExampleService proof_size ETV
vector 293 World.node[158].appl.middleware.ExampleService proof_requested ETV
237	40964 64 6684822 7647309 527.026965215942 587.026965215942 2 11 12 23 265
236	41028 62 6684822 7647309 527.026965215942 587.026965215942 2 3 5 8 34
vector 294 World.node[160].appl.middleware.ExampleService proof_size ETV
vector 295 World.node[160].appl.middleware.ExampleService proof_requested ETV
131	41241 190 2870664 8381275 332.097214964777 632.097214964777 6 4 17 73 1043
130	41431 186 2870664 8381275 332.097214964777 632.097214964777 6 1 7 18 76
vector 296 World.node[153].appl.middleware.ExampleService proof_size ETV
vector 297 World.node[153].appl.middleware.ExampleService proof_requested ETV
vector 298 World.node[165].appl.middleware.ExampleService proof_size ETV
vector 299 World.node[165].appl.middleware.ExampleService proof_requested ETV
vector 300 World.node[152].appl.middleware.ExampleService proof_size ETV
vector 301 World.node[152].appl.middleware.ExampleService proof_requested ETV
273	42070 32 7876580 7876580 599.011834536074 599.011834536074 1 10 10 10 100
272	42102 31 7876580 7876580 599.011834536074 599.011834536074 1 2 2 2 4
vector 302 World.node[166].appl.middleware.ExampleService proof_size ETV
vector 303 World.node[166].appl.middleware.ExampleService proof_requested ETV
207	42284 127 5187234 8364317 451.073266339535 631.073266339535 4 2 12 34 348
206	42411 124 5187234 8364317 451.073266339535 631.073266339535 4 0 4 8 26
vector 304 World.node[168].appl.middleware.ExampleService proof_size ETV
vector 305 World.node[168].appl.middleware.ExampleService proof_requested ETV
285	42686 32 8123537 8123537 612.027938406239 612.027938406239 1 11 11 11 121
284	42718 31 8123537 8123537 612.027938406239 612.027938406239 1 3 3 3 9
vector 306 World.node[162].appl.middleware.ExampleService proof_size ETV
vector 307 World.node[162].appl.middleware.ExampleService proof_requested ETV
vector 308 World.node[159].appl.middleware.ExampleService proof_size ETV
vector 309 World.node[159].appl.middleware.ExampleService proof_requested ETV
vector 310 World.node[163].appl.middleware.ExampleService proof_size ETV
vector 311 World.node[163].appl.middleware.ExampleService proof_requested ETV
vector 312 World.node[172].appl.middleware.ExampleService proof_size ETV
vector 313 World.node[172].appl.middleware.ExampleService proof_requested ETV
255	43353 64 7252021 8259078 562.032205386576 622.032205386576 2 15 19 34 586
254	43417 62 7252021 8259078 562.032205386576 622.032205386576 2 4 6 10 52
249	43479 92 7072189 8960524 551.07897856664 671.01993704545 3 1 17 20 294
248	43571 91 7072189 8960524 551.07897856664 671.01993704545 3 1 3 6 14
vector 314 World.node[173].appl.middleware.ExampleService proof_size ETV
vector 315 World.node[173].appl.middleware.ExampleService proof_requested ETV
vector 316 World.node[167].appl.middleware.ExampleService proof_size ETV
vector 317 World.node[167].appl.middleware.ExampleService proof_requested ETV
vector 318 World.node[175].appl.middleware.ExampleService proof_size ETV
vector 319 World.node[175].appl.middleware.ExampleService proof_requested ETV
vector 320 World.node[164].appl.middleware.ExampleService proof_size ETV
vector 321 World.node[164].appl.middleware.ExampleService proof_requested ETV
vector 322 World.node[169].appl.middleware.ExampleService proof_size ETV
vector 323 World.node[169].appl.middleware.ExampleService proof_requested ETV
225	44417 124 6031877 8931361 489.077421521232 669.077421521232 4 6 9 30 230
224	44541 124 6031877 8931361 489.077421521232 669.077421521232 4 2 5 12 42
227	44665 126 6146253 9041662 496.077166656358 676.077166656358 4 8 14 40 424
226	44791 124 6146253 9041662 496.077166656358 676.077166656358 4 0 4 9 33
263	44915 63 7448801 8413399 574.098167719762 634.098167719762 2 9 13 22 250
262	44978 62 7448801 8413399 574.098167719762 634.098167719762 2 2 8 10 68
vector 324 World.node[179].appl.middleware.ExampleService proof_size ETV
vector 325 World.node[179].appl.middleware.ExampleService proof_requested ETV
vector 326 World.node[171].appl.middleware.ExampleService proof_size ETV
vector 327 World.node[171].appl.middleware.ExampleService proof_requested ETV
301	45342 32 8642175 8642175 650.052225563419 650.052225563419 1 16 16 16 256
300	45374 31 8642175 8642175 650.052225563419 650.052225563419 1 9 9 9 81
223	45405 126 5943890 8854950 484.095800536522 664.095800536522 4 5 22 46 702
222	45531 124 5943890 8854950 484.095800536522 664.095800536522 4 1 4 9 27
271	45655 62 7860499 8762224 598.025050762692 658.025050762692 2 5 9 14 106
270	45717 62 7860499 8762224 598.025050762692 658.025050762692 2 2 4 6 20
287	45779 64 8165149 9026896 615.095733291167 675.095733291167 2 10 10 20 200
286	45843 62 8165149 9026896 615.095733291167 675.095733291167 2 2 4 6 20
309	45905 32 8852830 8852830 664.035336758196 664.035336758196 1 10 10 10 100
308	45937 31 8852830 8852830 664.035336758196 664.035336758196 1 1 1 1 1
297	45968 62 8585324 9587509 646.070380130666 706.070380130666 2 8 9 17 145
296	46030 62 8585324 9587509 646.070380130666 706.070380130666 2 1 4 5 17
vector 328 World.node[180].appl.middleware.ExampleService proof_size ETV
vector 329 World.node[180].appl.middleware.ExampleService proof_requested ETV
vector 330 World.node[170].appl.middleware.ExampleService proof_size ETV
vector 331 World.node[170].appl.middleware.ExampleService proof_requested ETV
251	46394 94 7100759 8993473 553.016390808765 673.016390808765 3 6 10 23 185
250	46488 93 7100759 8993473 553.016390808765 673.016390808765 3 1 3 6 14
219	46581 126 5840150 8773323 479.002093433985 659.002093433985 4 5 15 38 414
218	46707 124 5840150 8773323 479.002093433985 659.002093433985 4 0 4 10 34
265	46831 94 7576054 9568492 582.092459835428 705.032089164993 3 1 15 22 262
264	46925 93 7576054 9568492 582.092459835428 705.032089164993 3 1 8 10 66
vector 332 World.node[181].appl.middleware.ExampleService proof_size ETV
vector 333 World.node[181].appl.middleware.ExampleService proof_requested ETV
vector 334 World.node[178].appl.middleware.ExampleService proof_size ETV
vector 335 World.node[178].appl.middleware.ExampleService proof_requested ETV
277	47320 94 7955961 9784695 603.031413649069 720.124365428295 3 1 17 27 371
276	47414 93 7955961 9784695 603.031413649069 720.124365428295 3 1 4 9 33
vector 336 World.node[174].appl.middleware.ExampleService proof_size ETV
vector 337 World.node[174].appl.middleware.ExampleService proof_requested ETV
vector 338 World.node[182].appl.middleware.ExampleService proof_size ETV
vector 339 World.node[182].appl.middleware.ExampleService proof_requested ETV
305	47809 63 8724617 9718005 655.177940158313 715.077940158313 2 9 10 19 181
304	47872 62 8724617 9718005 655.177940158313 715.077940158313 2 1 3 4 10
vector 340 World.node[177].appl.middleware.ExampleService proof_size ETV
vector 341 World.node[177].appl.middleware.ExampleService proof_requested ETV
vector 342 World.node[187].appl.middleware.ExampleService proof_size ETV
vector 343 World.node[187].appl.middleware.ExampleService proof_requested ETV
vector 344 World.node[188].appl.middleware.ExampleService proof_size ETV
vector 345 World.node[188].appl.middleware.ExampleService proof_requested ETV
259	48387 94 7433516 9360391 573.070805339492 693.070805339492 3 4 15 25 277
258	48481 93 7433516 9360391 573.070805339492 693.070805339492 3 1 4 8 26
vector 346 World.node[186].appl.middleware.ExampleService proof_size ETV
vector 347 World.node[186].appl.middleware.ExampleService proof_requested ETV
269	48725 95 7589865 9537610 583.059051218187 703.059051218187 3 8 10 28 264
268	48820 93 7589865 9537610 583.059051218187 703.059051218187 3 2 4 9 29
vector 348 World.node[183].appl.middleware.ExampleService proof_size ETV
vector 349 World.node[183].appl.middleware.ExampleService proof_requested ETV
vector 350 World.node[176].appl.middleware.ExampleService proof_size ETV
vector 351 World.node[176].appl.middleware.ExampleService proof_requested ETV
vector 352 World.node[189].appl.middleware.ExampleService proof_size ETV
vector 353 World.node[189].appl.middleware.ExampleService proof_requested ETV
vector 354 World.node[184].appl.middleware.ExampleService proof_size ETV
vector 355 World.node[184].appl.middleware.ExampleService proof_requested ETV
275	49517 93 7937671 9812724 602.069752944144 722.069752944144 3 4 9 21 161
274	49610 93 7937671 9812724 602.069752944144 722.069752944144 3 1 2 5 9
vector 356 World.node[190].appl.middleware.ExampleService proof_size ETV
vector 357 World.node[190].appl.middleware.ExampleService proof_requested ETV
217	49854 157 5822984 9754914 478.020565711777 718.020565711777 5 4 19 43 529
216	50011 155 5822984 9754914 478.020565711777 718.020565711777 5 2 8 19 97
323	50166 64 9221616 10272282 686.060736667691 746.060736667691 2 7 19 26 410
322	50230 63 9221616 10272282 686.060736667691 746.060736667691 2 1 8 9 65
291	50293 96 8314124 10290160 627.060503876093 747.060503876093 3 7 11 28 270
290	50389 94 8314124 10290160 627.060503876093 747.060503876093 3 2 4 8 24
239	50483 159 6773044 10729393 532.089704040112 772.089704040112 5 7 19 59 799
238	50642 156 6773044 10729393 532.089704040112 772.089704040112 5 1 4 12 38
321	50798 65 9202700 10255136 685.033439550409 745.033439550409 2 10 15 25 325
320	50863 63 9202700 10255136 685.033439550409 745.033439550409 2 1 6 7 37
vector 358 World.node[199].appl.middleware.ExampleService proof_size ETV
vector 359 World.node[199].appl.middleware.ExampleService proof_requested ETV
261	51077 123 7447517 10419801 574.03597468948 754.03597468948 4 5 14 40 454
260	51200 121 7447517 10419801 574.03597468948 754.03597468948 4 3 7 19 103
315	51321 64 9056283 10100906 677.069372247276 737.069372247276 2 6 13 19 205
314	51385 63 9056283 10100906 677.069372247276 737.069372247276 2 5 6 11 61
vector 360 World.node[185].appl.middleware.ExampleService proof_size ETV
vector 361 World.node[185].appl.middleware.ExampleService proof_requested ETV
357	51599 32 10380675 10380675 752.026924813353 752.026924813353 1 5 5 5 25
356	51631 32 10380675 10380675 752.026924813353 752.026924813353 1 1 1 1 1
vector 362 World.node[193].appl.middleware.ExampleService proof_size ETV
vector 363 World.node[193].appl.middleware.ExampleService proof_requested ETV
vector 364 World.node[191].appl.middleware.ExampleService proof_size ETV
vector 365 World.node[191].appl.middleware.ExampleService proof_requested ETV
341	51965 63 9951738 11005853 729.099659052561 786.187038859582 2 2 3 5 13
340	52028 63 9951738 11005853 729.099659052561 786.187038859582 2 1 3 4 10
293	52091 95 8412021 10421501 634.064687553397 754.064687553397 3 2 13 23 237
292	52186 94 8412021 10421501 634.064687553397 754.064687553397 3 1 3 6 14
vector 366 World.node[195].appl.middleware.ExampleService proof_size ETV
vector 367 World.node[195].appl.middleware.ExampleService proof_requested ETV
vector 368 World.node[198].appl.middleware.ExampleService proof_size ETV
vector 369 World.node[198].appl.middleware.ExampleService proof_requested ETV
vector 370 World.node[197].appl.middleware.ExampleService proof_size ETV
vector 371 World.node[197].appl.middleware.ExampleService proof_requested ETV
vector 372 World.node[192].appl.middleware.ExampleService proof_size ETV
vector 373 World.node[192].appl.middleware.ExampleService proof_requested ETV
283	52884 128 8094486 11075807 610.050123696262 790.050123696262 4 8 17 46 574
282	53012 125 8094486 11075807 610.050123696262 790.050123696262 4 3 9 19 115
vector 374 World.node[194].appl.middleware.ExampleService proof_size ETV
vector 375 World.node[194].appl.middleware.ExampleService proof_requested ETV
307	53288 96 8824610 10921207 662.081252364093 782.081252364093 3 1 15 26 326
306	53384 95 8824610 10921207 662.081252364093 782.081252364093 3 0 12 14 148
vector 376 World.node[207].appl.middleware.ExampleService proof_size ETV
vector 377 World.node[207].appl.middleware.ExampleService proof_requested ETV
375	53630 32 11361899 11361899 808.031396855041 808.031396855041 1 5 5 5 25
374	53662 32 11361899 11361899 808.031396855041 808.031396855041 1 0 0 0 0
vector 378 World.node[208].appl.middleware.ExampleService proof_size ETV
vector 379 World.node[208].appl.middleware.ExampleService proof_requested ETV
327	53845 94 9392635 11494967 695.04268561129 815.04268561129 3 7 15 32 374
326	53939 92 9392635 11494967 695.04268561129 815.04268561129 3 3 4 11 41
317	54031 96 9092900 11218269 679.081639324478 799.081639324478 3 4 15 24 266
316	54127 95 9092900 11218269 679.081639324478 799.081639324478 3 0 3 3 9
vector 380 World.node[202].appl.middleware.ExampleService proof_size ETV
vector 381 World.node[202].appl.middleware.ExampleService proof_requested ETV
245	54373 158 6829647 10810659 536.041407153802 776.041407153802 5 3 21 46 636
244	54531 157 6829647 10810659 536.041407153802 776.041407153802 5 1 10 21 155
vector 382 World.node[203].appl.middleware.ExampleService proof_size ETV
vector 383 World.node[203].appl.middleware.ExampleService proof_requested ETV
319	54839 97 9160075 11279125 683.040741514671 803.040741514671 3 3 15 28 334
318	54936 95 9160075 11279125 683.040741514671 803.040741514671 3 0 2 3 5
vector 384 World.node[201].appl.middleware.ExampleService proof_size ETV
vector 385 World.node[201].appl.middleware.ExampleService proof_requested ETV
vector 386 World.node[204].appl.middleware.ExampleService proof_size ETV
vector 387 World.node[204].appl.middleware.ExampleService proof_requested ETV
vector 388 World.node[205].appl.middleware.ExampleService proof_size ETV
vector 389 World.node[205].appl.middleware.ExampleService proof_requested ETV
337	55484 64 9870324 10979750 725.073599296226 785.073599296226 2 6 11 17 157
336	55548 63 9870324 10979750 725.073599296226 785.073599296226 2 2 3 5 13
vector 390 World.node[206].appl.middleware.ExampleService proof_size ETV
vector 391 World.node[206].appl.middleware.ExampleService proof_requested ETV
331	55762 98 9633710 11804459 709.049256356503 829.049256356503 3 11 16 43 633
330	55860 95 9633710 11804459 709.049256356503 829.049256356503 3 3 9 15 99
vector 392 World.node[212].appl.middleware.ExampleService proof_size ETV
vector 393 World.node[212].appl.middleware.ExampleService proof_requested ETV
371	56106 32 11134821 11134821 794.043934138468 794.043934138468 1 9 9 9 81
370	56138 32 11134821 11134821 794.043934138468 794.043934138468 1 1 1 1 1
vector 394 World.node[213].appl.middleware.ExampleService proof_size ETV
vector 395 World.node[213].appl.middleware.ExampleService proof_requested ETV
vector 396 World.node[210].appl.middleware.ExampleService proof_size ETV
vector 397 World.node[210].appl.middleware.ExampleService proof_requested ETV
vector 398 World.node[215].appl.middleware.ExampleService proof_size ETV
vector 399 World.node[215].appl.middleware.ExampleService proof_requested ETV
vector 400 World.node[196].appl.middleware.ExampleService proof_size ETV
vector 401 World.node[196].appl.middleware.ExampleService proof_requested ETV
325	56774 96 9380049 11412696 694.107773973304 811.120682185662 3 2 13 18 182
324	56870 96 9380049 11412696 694.107773973304 811.120682185662 3 1 11 15 131
369	56966 31 11134374 11134374 794.03370181988 794.03370181988 1 4 4 4 16
368	56997 31 11134374 11134374 794.03370181988 794.03370181988 1 3 3 3 9
vector 402 World.node[216].appl.middleware.ExampleService proof_size ETV
vector 403 World.node[216].appl.middleware.ExampleService proof_requested ETV
333	57179 96 9756624 11919294 718.071843078057 835.237862333516 3 5 13 24 230
332	57275 95 9756624 11919294 718.071843078057 835.237862333516 3 1 6 12 62
vector 404 World.node[211].appl.middleware.ExampleService proof_size ETV
vector 405 World.node[211].appl.middleware.ExampleService proof_requested ETV
353	57521 64 10238290 11249281 744.082168464013 801.142528208992 2 1 8 9 65
352	57585 64 10238290 11249281 744.082168464013 801.142528208992 2 1 1 2 2
vector 406 World.node[209].appl.middleware.ExampleService proof_size ETV
vector 407 World.node[209].appl.middleware.ExampleService proof_requested ETV
313	57800 123 8979095 12258501 672.0765793256 852.0765793256 4 14 21 69 1223
312	57923 119 8979095 12258501 672.0765793256 852.0765793256 4 4 9 25 171
339	58042 97 9910156 12148943 727.022553947987 847.022553947987 3 4 16 34 468
338	58139 95 9910156 12148943 727.022553947987 847.022553947987 3 0 3 5 13
387	58234 33 11820749 11820749 830.060570930084 830.060570930084 1 16 16 16 256
386	58267 32 11820749 11820749 830.060570930084 830.060570930084 1 6 6 6 36
vector 408 World.node[217].appl.middleware.ExampleService proof_size ETV
vector 409 World.node[217].appl.middleware.ExampleService proof_requested ETV
289	58450 160 8217113 12391234 619.026440387755 859.026440387755 5 7 10 44 394
288	58610 158 8217113 12391234 619.026440387755 859.026440387755 5 1 5 11 35
vector 410 World.node[221].appl.middleware.ExampleService proof_size ETV
vector 411 World.node[221].appl.middleware.ExampleService proof_requested ETV
vector 412 World.node[220].appl.middleware.ExampleService proof_size ETV
vector 413 World.node[220].appl.middleware.ExampleService proof_requested ETV
vector 414 World.node[218].appl.middleware.ExampleService proof_size ETV
vector 415 World.node[218].appl.middleware.ExampleService proof_requested ETV
281	59221 161 8058188 12170595 608.092359468364 848.092359468364 5 4 17 65 955
280	59382 158 8058188 12170595 608.092359468364 848.092359468364 5 1 10 34 282
303	59540 128 8691069 11874516 653.079481106414 833.079481106414 4 6 19 49 703
302	59668 126 8691069 11874516 653.079481106414 833.079481106414 4 5 6 23 133
359	59794 64 10849400 11968709 778.07260546505 838.07260546505 2 11 16 27 377
358	59858 62 10849400 11968709 778.07260546505 838.07260546505 2 5 9 14 106
vector 416 World.node[214].appl.middleware.ExampleService proof_size ETV
vector 417 World.node[214].appl.middleware.ExampleService proof_requested ETV
vector 418 World.node[227].appl.middleware.ExampleService proof_size ETV
vector 419 World.node[227].appl.middleware.ExampleService proof_requested ETV
329	60222 126 9614766 13003161 708.00741180256 888.00741180256 4 5 19 50 742
328	60348 123 9614766 13003161 708.00741180256 888.00741180256 4 1 7 17 95
403	60471 32 12291890 12291890 854.043012323719 854.043012323719 1 9 9 9 81
402	60503 32 12291890 12291890 854.043012323719 854.043012323719 1 5 5 5 25
361	60535 65 10936442 12062158 783.025208974164 843.025208974164 2 4 20 24 416
360	60600 64 10936442 12062158 783.025208974164 843.025208974164 2 0 8 8 64
367	60664 66 11104835 12258639 792.079355087131 852.079355087131 2 11 14 25 317
366	60730 65 11104835 12258639 792.079355087131 852.079355087131 2 4 11 15 137
373	60795 65 11168941 12333862 796.099595338805 856.099595338805 2 9 11 20 202
372	60860 64 11168941 12333862 796.099595338805 856.099595338805 2 2 5 7 29
299	60924 159 8616272 13009194 648.141365121119 888.117757792612 5 3 12 34 286
298	61083 158 8616272 13009194 648.141365121119 888.117757792612 5 0 5 14 54
vector 420 World.node[226].appl.middleware.ExampleService proof_size ETV
vector 421 World.node[226].appl.middleware.ExampleService proof_requested ETV
295	61392 161 8512278 12860424 641.010009981692 881.010009981692 5 7 19 56 718
294	61553 158 8512278 12860424 641.010009981692 881.010009981692 5 3 8 31 207
vector 422 World.node[223].appl.middleware.ExampleService proof_size ETV
vector 423 World.node[223].appl.middleware.ExampleService proof_requested ETV
345	61862 98 10004930 12257221 732.058585645491 852.058585645491 3 6 21 41 673
344	61960 96 10004930 12257221 732.058585645491 852.058585645491 3 5 7 18 110
365	62056 98 11021209 13316517 787.064442436886 907.064442436886 3 3 16 29 365
364	62154 96 11021209 13316517 787.064442436886 907.064442436886 3 2 4 8 24
393	62250 64 11967489 13167705 838.057642273558 898.057642273558 2 4 5 9 41
392	62314 64 11967489 13167705 838.057642273558 898.057642273558 2 1 1 2 2
vector 424 World.node[234].appl.middleware.ExampleService proof_size ETV
vector 425 World.node[234].appl.middleware.ExampleService proof_requested ETV
vector 426 World.node[235].appl.middleware.ExampleService proof_size ETV
vector 427 World.node[235].appl.middleware.ExampleService proof_requested ETV
311	62680 154 8960959 13381670 671.02528037061 911.02528037061 5 6 15 44 440
310	62834 153 8960959 13381670 671.02528037061 911.02528037061 5 2 6 18 74
vector 428 World.node[231].appl.middleware.ExampleService proof_size ETV
vector 429 World.node[231].appl.middleware.ExampleService proof_requested ETV
vector 430 World.node[224].appl.middleware.ExampleService proof_size ETV
vector 431 World.node[224].appl.middleware.ExampleService proof_requested ETV
vector 432 World.node[228].appl.middleware.ExampleService proof_size ETV
vector 433 World.node[228].appl.middleware.ExampleService proof_requested ETV
vector 434 World.node[232].appl.middleware.ExampleService proof_size ETV
vector 435 World.node[232].appl.middleware.ExampleService proof_requested ETV
vector 436 World.node[229].appl.middleware.ExampleService proof_size ETV
vector 437 World.node[229].appl.middleware.ExampleService proof_requested ETV
vector 438 World.node[238].appl.middleware.ExampleService proof_size ETV
vector 439 World.node[238].appl.middleware.ExampleService proof_requested ETV
343	63893 130 10002703 13350592 732.020427017868 909.075869394783 4 3 22 45 711
342	64023 128 10002703 13350592 732.020427017868 909.075869394783 4 2 9 17 103
vector 440 World.node[239].appl.middleware.ExampleService proof_size ETV
vector 441 World.node[239].appl.middleware.ExampleService proof_requested ETV
389	64302 65 11892967 13108881 834.066546162963 894.066546162963 2 2 13 15 173
388	64367 64 11892967 13108881 834.066546162963 894.066546162963 2 1 8 9 65
vector 442 World.node[237].appl.middleware.ExampleService proof_size ETV
vector 443 World.node[237].appl.middleware.ExampleService proof_requested ETV
417	64582 64 12967752 13939046 886.063037761953 946.063037761953 2 6 9 15 117
416	64646 64 12967752 13939046 886.063037761953 946.063037761953 2 0 3 3 9
349	64710 131 10177512 13560250 741.043019835418 921.043019835418 4 9 24 58 974
348	64841 128 10177512 13560250 741.043019835418 921.043019835418 4 2 5 14 58
vector 444 World.node[236].appl.middleware.ExampleService proof_size ETV
vector 445 World.node[236].appl.middleware.ExampleService proof_requested ETV
355	65120 126 10256530 13620179 745.06425165066 925.06425165066 4 2 15 41 535
354	65246 124 10256530 13620179 745.06425165066 925.06425165066 4 0 5 11 51
vector 446 World.node[230].appl.middleware.ExampleService proof_size ETV
vector 447 World.node[230].appl.middleware.ExampleService proof_requested ETV
267	65521 227 7587932 13887767 583.014090564055 943.014090564055 7 2 18 94 1452
266	65748 221 7587932 13887767 583.014090564055 943.014090564055 7 0 8 32 198
381	65969 95 11582226 13869807 819.021493288584 942.00242889151 3 1 16 22 282
380	66064 94 11582226 13869807 819.021493288584 942.00242889151 3 0 8 9 65
421	66158 32 13366301 13366301 910.047357081203 910.047357081203 1 7 7 7 49
420	66190 32 13366301 13366301 910.047357081203 910.047357081203 1 1 1 1 1
419	66222 65 13039671 14004320 890.040829605726 950.040829605726 2 9 12 21 225
418	66287 64 13039671 14004320 890.040829605726 950.040829605726 2 1 3 4 10
347	66351 129 10082582 13477085 736.080027942127 916.080027942127 4 4 15 35 371
346	66480 128 10082582 13477085 736.080027942127 916.080027942127 4 1 2 5 7
vector 448 World.node[248].appl.middleware.ExampleService proof_size ETV
vector 449 World.node[248].appl.middleware.ExampleService proof_requested ETV
vector 450 World.node[242].appl.middleware.ExampleService proof_size ETV
vector 451 World.node[242].appl.middleware.ExampleService proof_requested ETV
vector 452 World.node[246].appl.middleware.ExampleService proof_size ETV
vector 453 World.node[246].appl.middleware.ExampleService proof_requested ETV
405	67061 66 12486671 13593715 863.065545243281 923.065545243281 2 10 13 23 269
404	67127 64 12486671 13593715 863.065545243281 923.065545243281 2 4 5 9 41
383	67191 97 11726545 13971901 825.162539468973 948.061386441253 3 1 13 18 186
382	67288 96 11726545 13971901 825.162539468973 948.061386441253 3 1 3 6 14
407	67384 63 12509582 13607765 864.08713152213 924.08713152213 2 8 22 30 548
406	67447 62 12509582 13607765 864.08713152213 924.08713152213 2 3 4 7 25
439	67509 31 13760164 13760164 935.03971273778 935.03971273778 1 5 5 5 25
438	67540 31 13760164 13760164 935.03971273778 935.03971273778 1 3 3 3 9
vector 454 World.node[249].appl.middleware.ExampleService proof_size ETV
vector 455 World.node[249].appl.middleware.ExampleService proof_requested ETV
415	67722 64 12708498 13744755 874.014619106473 934.014619106473 2 4 6 10 52
414	67786 64 12708498 13744755 874.014619106473 934.014619106473 2 0 1 1 1
vector 456 World.node[250].appl.middleware.ExampleService proof_size ETV
vector 457 World.node[250].appl.middleware.ExampleService proof_requested ETV
vector 458 World.node[240].appl.middleware.ExampleService proof_size ETV
vector 459 World.node[240].appl.middleware.ExampleService proof_requested ETV
vector 460 World.node[243].appl.middleware.ExampleService proof_size ETV
vector 461 World.node[243].appl.middleware.ExampleService proof_requested ETV
vector 462 World.node[251].appl.middleware.ExampleService proof_size ETV
vector 463 World.node[251].appl.middleware.ExampleService proof_requested ETV
401	68454 98 12166324 14306200 848.018588445289 968.018588445289 3 7 14 32 366
400	68552 96 12166324 14306200 848.018588445289 968.018588445289 3 2 4 9 29
vector 464 World.node[245].appl.middleware.ExampleService proof_size ETV
vector 465 World.node[245].appl.middleware.ExampleService proof_requested ETV
335	68799 158 9850859 14240124 724.04887155653 964.04887155653 5 3 19 52 684
334	68957 155 9850859 14240124 724.04887155653 964.04887155653 5 3 6 23 111
385	69112 99 11763602 13953712 827.066498067905 947.066498067905 3 14 29 60 1326
384	69211 97 11763602 13953712 827.066498067905 947.066498067905 3 4 16 24 288
379	69308 129 11450537 14640131 813.034727200074 990.10828177893 4 1 18 40 606
378	69437 127 11450537 14640131 813.034727200074 990.10828177893 4 1 5 8 28
vector 466 World.node[252].appl.middleware.ExampleService proof_size ETV
vector 467 World.node[252].appl.middleware.ExampleService proof_requested ETV
vector 468 World.node[244].appl.middleware.ExampleService proof_size ETV
vector 469 World.node[244].appl.middleware.ExampleService proof_requested ETV
vector 470 World.node[254].appl.middleware.ExampleService proof_size ETV
vector 471 World.node[254].appl.middleware.ExampleService proof_requested ETV
409	70017 98 12529321 14571196 865.043801603373 985.043801603373 3 9 17 39 539
408	70115 96 12529321 14571196 865.043801603373 985.043801603373 3 2 9 15 101
vector 472 World.node[253].appl.middleware.ExampleService proof_size ETV
vector 473 World.node[253].appl.middleware.ExampleService proof_requested ETV
429	70362 61 13590759 14539728 923.0148747114 983.0148747114 2 7 10 17 149
428	70423 60 13590759 14539728 923.0148747114 983.0148747114 2 2 2 4 8
413	70483 97 12687880 14684460 873.028014279855 993.028014279855 3 4 17 27 341
412	70580 96 12687880 14684460 873.028014279855 993.028014279855 3 1 5 8 30
447	70676 33 14075471 14075471 954.032744783815 954.032744783815 1 15 15 15 225
446	70709 32 14075471 14075471 954.032744783815 954.032744783815 1 4 4 4 16
399	70741 95 12152815 14291455 847.09265360292 967.09265360292 3 4 11 25 237
398	70836 93 12152815 14291455 847.09265360292 967.09265360292 3 3 7 14 74
391	70929 130 11917914 15015820 835.18315238963 1018.044420376862 4 2 18 38 508
390	71059 128 11917914 15015820 835.18315238963 1018.044420376862 4 2 6 12 48
445	71187 66 14058387 14952349 953.038066978101 1013.038066978101 2 5 13 18 194
444	71253 65 14058387 14952349 953.038066978101 1013.038066978101 2 1 5 6 26
395	71318 94 12065500 14226740 843.09606617745 963.09606617745 3 3 13 25 259
394	71412 93 12065500 14226740 843.09606617745 963.09606617745 3 2 6 10 44
vector 474 World.node[247].appl.middleware.ExampleService proof_size ETV
vector 475 World.node[247].appl.middleware.ExampleService proof_requested ETV
vector 476 World.node[263].appl.middleware.ExampleService proof_size ETV
vector 477 World.node[263].appl.middleware.ExampleService proof_requested ETV
vector 478 World.node[258].appl.middleware.ExampleService proof_size ETV
vector 479 World.node[258].appl.middleware.ExampleService proof_requested ETV
363	71958 163 11020830 15121978 787.062984295096 1027.062984295096 5 8 19 61 843
362	72121 161 11020830 15121978 787.062984295096 1027.062984295096 5 1 6 18 90
vector 480 World.node[255].appl.middleware.ExampleService proof_size ETV
vector 481 World.node[255].appl.middleware.ExampleService proof_requested ETV
vector 482 World.node[257].appl.middleware.ExampleService proof_size ETV
vector 483 World.node[257].appl.middleware.ExampleService proof_requested ETV
377	72584 131 11376947 14624661 809.059518642235 989.059518642235 4 3 19 47 683
376	72715 128 11376947 14624661 809.059518642235 989.059518642235 4 1 8 17 99
397	72843 132 12065609 15073861 843.098842719314 1023.098842719314 4 6 13 44 518
396	72975 129 12065609 15073861 843.098842719314 1023.098842719314 4 1 8 15 85
vector 484 World.node[268].appl.middleware.ExampleService proof_size ETV
vector 485 World.node[268].appl.middleware.ExampleService proof_requested ETV
449	73255 65 14309496 15132156 968.096023148904 1028.096023148904 2 5 9 14 106
448	73320 65 14309496 15132156 968.096023148904 1028.096023148904 2 1 2 3 5
351	73385 195 10196431 15322509 742.024835564522 1042.024835564522 6 7 15 54 542
350	73580 193 10196431 15322509 742.024835564522 1042.024835564522 6 2 7 22 106
vector 486 World.node[259].appl.middleware.ExampleService proof_size ETV
vector 487 World.node[259].appl.middleware.ExampleService proof_requested ETV
433	73924 97 13630207 15391193 926.01479148448 1046.01479148448 3 10 17 39 533
432	74021 94 13630207 15391193 926.01479148448 1046.01479148448 3 0 6 8 40
vector 488 World.node[256].appl.middleware.ExampleService proof_size ETV
vector 489 World.node[256].appl.middleware.ExampleService proof_requested ETV
467	74266 66 14716780 15533243 995.014080909896 1055.014080909896 2 7 14 21 245
466	74332 65 14716780 15533243 995.014080909896 1055.014080909896 2 1 1 2 2
443	74397 99 13922047 15679838 945.034432696458 1065.034432696458 3 3 16 26 314
442	74496 98 13922047 15679838 945.034432696458 1065.034432696458 3 2 3 8 22
vector 490 World.node[261].appl.middleware.ExampleService proof_size ETV
vector 491 World.node[261].appl.middleware.ExampleService proof_requested ETV
457	74745 66 14545699 15292187 983.094581820304 1040.156132471064 2 2 13 15 173
456	74811 65 14545699 15292187 983.094581820304 1040.156132471064 2 2 3 5 13
451	74876 66 14355123 15163537 971.006791124679 1031.006791124679 2 3 16 19 265
450	74942 65 14355123 15163537 971.006791124679 1031.006791124679 2 0 2 2 4
vector 492 World.node[260].appl.middleware.ExampleService proof_size ETV
vector 493 World.node[260].appl.middleware.ExampleService proof_requested ETV
477	75158 34 15199656 15199656 1034.026133707771 1034.026133707771 1 10 10 10 100
476	75192 33 15199656 15199656 1034.026133707771 1034.026133707771 1 4 4 4 16
vector 494 World.node[262].appl.middleware.ExampleService proof_size ETV
vector 495 World.node[262].appl.middleware.ExampleService proof_requested ETV
vector 496 World.node[266].appl.middleware.ExampleService proof_size ETV
vector 497 World.node[266].appl.middleware.ExampleService proof_requested ETV
vector 498 World.node[271].appl.middleware.ExampleService proof_size ETV
vector 499 World.node[271].appl.middleware.ExampleService proof_requested ETV
441	75678 99 13855512 15622227 941.018632907653 1061.018632907653 3 7 18 34 454
440	75777 98 13855512 15622227 941.018632907653 1061.018632907653 3 2 3 7 17
479	75875 32 15257835 15257835 1038.04687472193 1038.04687472193 1 3 3 3 9
478	75907 32 15257835 15257835 1038.04687472193 1038.04687472193 1 0 0 0 0
vector 500 World.node[264].appl.middleware.ExampleService proof_size ETV
vector 501 World.node[264].appl.middleware.ExampleService proof_requested ETV
vector 502 World.node[265].appl.middleware.ExampleService proof_size ETV
vector 503 World.node[265].appl.middleware.ExampleService proof_requested ETV
459	76241 64 14585768 15394474 986.06853850456 1046.06853850456 2 8 17 25 353
458	76305 63 14585768 15394474 986.06853850456 1046.06853850456 2 0 6 6 36
vector 504 World.node[272].appl.middleware.ExampleService proof_size ETV
vector 505 World.node[272].appl.middleware.ExampleService proof_requested ETV
437	76519 99 13758844 15493127 935.013019479602 1052.134931840263 3 8 17 37 497
436	76618 98 13758844 15493127 935.013019479602 1052.134931840263 3 3 11 22 194
481	76716 34 15324687 15324687 1042.081807504618 1042.081807504618 1 14 14 14 196
480	76750 33 15324687 15324687 1042.081807504618 1042.081807504618 1 6 6 6 36
425	76783 100 13542773 15287356 920.025658545527 1040.025658545527 3 12 15 42 594
424	76883 97 13542773 15287356 920.025658545527 1040.025658545527 3 2 7 15 89
455	76980 65 14480724 15273208 979.034528972092 1039.034528972092 2 5 8 13 89
454	77045 65 14480724 15273208 979.034528972092 1039.034528972092 2 1 4 5 17
vector 506 World.node[267].appl.middleware.ExampleService proof_size ETV
vector 507 World.node[267].appl.middleware.ExampleService proof_requested ETV
461	77261 98 14611330 16162811 988.040591110312 1105.228272617036 3 4 6 16 88
460	77359 98 14611330 16162811 988.040591110312 1105.228272617036 3 1 5 10 42
vector 508 World.node[270].appl.middleware.ExampleService proof_size ETV
vector 509 World.node[270].appl.middleware.ExampleService proof_requested ETV
vector 510 World.node[275].appl.middleware.ExampleService proof_size ETV
vector 511 World.node[275].appl.middleware.ExampleService proof_requested ETV
427	77759 131 13548398 16137132 920.126578687706 1103.045100466278 4 4 19 39 507
426	77890 130 13548398 16137132 920.126578687706 1103.045100466278 4 1 5 13 51
vector 512 World.node[280].appl.middleware.ExampleService proof_size ETV
vector 513 World.node[280].appl.middleware.ExampleService proof_requested ETV
vector 514 World.node[279].appl.middleware.ExampleService proof_size ETV
vector 515 World.node[279].appl.middleware.ExampleService proof_requested ETV
vector 516 World.node[269].appl.middleware.ExampleService proof_size ETV
vector 517 World.node[269].appl.middleware.ExampleService proof_requested ETV
465	78473 66 14683857 15505520 993.018241362926 1053.018241362926 2 8 19 27 425
464	78539 65 14683857 15505520 993.018241362926 1053.018241362926 2 3 4 7 25
517	78604 33 16505541 16505541 1132.073256341997 1132.073256341997 1 5 5 5 25
516	78637 33 16505541 16505541 1132.073256341997 1132.073256341997 1 2 2 2 4
vector 518 World.node[273].appl.middleware.ExampleService proof_size ETV
vector 519 World.node[273].appl.middleware.ExampleService proof_requested ETV
vector 520 World.node[288].appl.middleware.ExampleService proof_size ETV
vector 521 World.node[288].appl.middleware.ExampleService proof_requested ETV
vector 522 World.node[283].appl.middleware.ExampleService proof_size ETV
vector 523 World.node[283].appl.middleware.ExampleService proof_requested ETV
497	79123 67 15798282 16564737 1076.009476486756 1136.009476486756 2 8 15 23 289
496	79190 66 15798282 16564737 1076.009476486756 1136.009476486756 2 1 3 4 10
vector 524 World.node[276].appl.middleware.ExampleService proof_size ETV
vector 525 World.node[276].appl.middleware.ExampleService proof_requested ETV
vector 526 World.node[277].appl.middleware.ExampleService proof_size ETV
vector 527 World.node[277].appl.middleware.ExampleService proof_requested ETV
vector 528 World.node[281].appl.middleware.ExampleService proof_size ETV
vector 529 World.node[281].appl.middleware.ExampleService proof_requested ETV
vector 530 World.node[282].appl.middleware.ExampleService proof_size ETV
vector 531 World.node[282].appl.middleware.ExampleService proof_requested ETV
469	79860 101 14791431 16338168 1000.063109080656 1120.063109080656 3 7 16 39 561
468	79961 99 14791431 16338168 1000.063109080656 1120.063109080656 3 5 8 19 125
vector 532 World.node[287].appl.middleware.ExampleService proof_size ETV
vector 533 World.node[287].appl.middleware.ExampleService proof_requested ETV
vector 534 World.node[274].appl.middleware.ExampleService proof_size ETV
vector 535 World.node[274].appl.middleware.ExampleService proof_requested ETV
423	80362 130 13511030 16080305 918.06295443913 1098.06295443913 4 13 15 57 815
422	80492 126 13511030 16080305 918.06295443913 1098.06295443913 4 2 9 22 146
vector 536 World.node[289].appl.middleware.ExampleService proof_size ETV
vector 537 World.node[289].appl.middleware.ExampleService proof_requested ETV
vector 538 World.node[290].appl.middleware.ExampleService proof_size ETV
vector 539 World.node[290].appl.middleware.ExampleService proof_requested ETV
435	80920 131 13675660 16204776 929.080536195998 1109.118102054823 4 1 23 35 615
434	81051 130 13675660 16204776 929.080536195998 1109.118102054823 4 1 5 11 39
vector 540 World.node[284].appl.middleware.ExampleService proof_size ETV
vector 541 World.node[284].appl.middleware.ExampleService proof_requested ETV
vector 542 World.node[293].appl.middleware.ExampleService proof_size ETV
vector 543 World.node[293].appl.middleware.ExampleService proof_requested ETV
485	81483 66 15579777 16311203 1058.031830183393 1118.031830183393 2 2 6 8 40
484	81549 66 15579777 16311203 1058.031830183393 1118.031830183393 2 0 0 0 0
411	81615 197 12624569 17088290 870.022685753973 1170.022685753973 6 4 14 52 526
410	81812 195 12624569 17088290 870.022685753973 1170.022685753973 6 1 7 16 66
535	82007 34 16847580 16847580 1153.057986890385 1153.057986890385 1 10 10 10 100
534	82041 33 16847580 16847580 1153.057986890385 1153.057986890385 1 2 2 2 4
vector 544 World.node[291].appl.middleware.ExampleService proof_size ETV
vector 545 World.node[291].appl.middleware.ExampleService proof_requested ETV
vector 546 World.node[286].appl.middleware.ExampleService proof_size ETV
vector 547 World.node[286].appl.middleware.ExampleService proof_requested ETV
471	82376 99 14838882 16388158 1004.032706885086 1124.032706885086 3 4 9 19 133
470	82475 99 14838882 16388158 1004.032706885086 1124.032706885086 3 1 3 5 11
507	82574 67 16093795 16936749 1099.049198049307 1159.049198049307 2 6 13 19 205
506	82641 66 16093795 16936749 1099.049198049307 1159.049198049307 2 3 4 7 25
vector 548 World.node[292].appl.middleware.ExampleService proof_size ETV
vector 549 World.node[292].appl.middleware.ExampleService proof_requested ETV
505	82858 67 15973659 16798391 1090.004606415518 1150.004606415518 2 9 13 22 250
504	82925 66 15973659 16798391 1090.004606415518 1150.004606415518 2 1 2 3 5
511	82991 34 16351488 16351488 1121.058989202697 1121.058989202697 1 11 11 11 121
510	83025 33 16351488 16351488 1121.058989202697 1121.058989202697 1 3 3 3 9
531	83058 33 16818669 16818669 1151.140342280879 1151.140342280879 1 1 1 1 1
530	83091 33 16818669 16818669 1151.140342280879 1151.140342280879 1 1 1 1 1
431	83124 165 13606928 17006519 924.047522439412 1164.047522439412 5 2 12 39 369
430	83289 163 13606928 17006519 924.047522439412 1164.047522439412 5 2 6 17 69
vector 550 World.node[285].appl.middleware.ExampleService proof_size ETV
vector 551 World.node[285].appl.middleware.ExampleService proof_requested ETV
[...]
vector 1720 World.node[909].appl.middleware.ExampleService proof_size ETV
vector 1721 World.node[909].appl.middleware.ExampleService proof_requested ETV
vector 1722 World.node[911].appl.middleware.ExampleService proof_size ETV
vector 1723 World.node[911].appl.middleware.ExampleService proof_requested ETV
vector 1724 World.node[906].appl.middleware.ExampleService proof_size ETV
vector 1725 World.node[906].appl.middleware.ExampleService proof_requested ETV
1565	285957 175 57334651 63983674 3187.076951860823 3427.076951860823 5 12 24 87 1611
1564	286132 171 57334651 63983674 3187.076951860823 3427.076951860823 5 5 11 36 282
vector 1726 World.node[902].appl.middleware.ExampleService proof_size ETV
vector 1727 World.node[902].appl.middleware.ExampleService proof_requested ETV
vector 1728 World.node[904].appl.middleware.ExampleService proof_size ETV
vector 1729 World.node[904].appl.middleware.ExampleService proof_requested ETV
vector 1730 World.node[913].appl.middleware.ExampleService proof_size ETV
vector 1731 World.node[913].appl.middleware.ExampleService proof_requested ETV
1665	286762 68 62318445 64400884 3379.097857146314 3439.097857146314 2 6 7 13 85
1664	286830 68 62318445 64400884 3379.097857146314 3439.097857146314 2 2 2 4 8
1681	286898 70 63689319 65604028 3419.090260501415 3479.090260501415 2 13 16 29 425
1680	286968 68 63689319 65604028 3419.090260501415 3479.090260501415 2 1 7 8 50
1631	287036 104 60429188 64334633 3317.043440087792 3437.043440087792 3 7 29 53 1179
1630	287140 102 60429188 64334633 3317.043440087792 3437.043440087792 3 1 2 5 9
1697	287242 34 64334267 64334267 3437.03680140744 3437.03680140744 1 10 10 10 100
1696	287276 33 64334267 64334267 3437.03680140744 3437.03680140744 1 6 6 6 36
1685	287309 69 63867556 65773438 3424.037481326121 3484.037481326121 2 4 25 29 641
1684	287378 68 63867556 65773438 3424.037481326121 3484.037481326121 2 3 3 6 18
1709	287446 33 64428399 64428399 3440.10224720216 3440.10224720216 1 2 2 2 4
1708	287479 33 64428399 64428399 3440.10224720216 3440.10224720216 1 2 2 2 4
vector 1732 World.node[905].appl.middleware.ExampleService proof_size ETV
vector 1733 World.node[905].appl.middleware.ExampleService proof_requested ETV
1619	287665 136 59627247 65222453 3288.05270797105 3468.05270797105 4 10 25 62 1102
1618	287801 132 59627247 65222453 3288.05270797105 3468.05270797105 4 3 7 20 110
1677	287933 70 63359173 65224981 3408.080189791415 3468.080189791415 2 12 13 25 313
1676	288003 68 63359173 65224981 3408.080189791415 3468.080189791415 2 3 3 6 18
vector 1734 World.node[910].appl.middleware.ExampleService proof_size ETV
vector 1735 World.node[910].appl.middleware.ExampleService proof_requested ETV
1691	288224 69 63945600 65837306 3426.029160583275 3486.029160583275 2 9 19 28 442
1690	288293 68 63945600 65837306 3426.029160583275 3486.029160583275 2 5 5 10 50
vector 1736 World.node[907].appl.middleware.ExampleService proof_size ETV
vector 1737 World.node[907].appl.middleware.ExampleService proof_requested ETV
1623	288514 140 59897605 65562103 3298.062976461253 3478.062976461253 4 11 18 56 822
1622	288654 137 59897605 65562103 3298.062976461253 3478.062976461253 4 5 11 29 231
1679	288791 70 63657755 65558477 3418.019711552351 3478.019711552351 2 16 21 37 697
1678	288861 68 63657755 65558477 3418.019711552351 3478.019711552351 2 3 4 7 25
vector 1738 World.node[912].appl.middleware.ExampleService proof_size ETV
vector 1739 World.node[912].appl.middleware.ExampleService proof_requested ETV
1555	289082 209 56958324 65065884 3166.054309430369 3463.065671956658 6 2 20 87 1469
1554	289291 204 56958324 65065884 3166.054309430369 3463.065671956658 6 0 5 13 43
1645	289495 105 61459530 65281159 3350.009923038748 3470.009923038748 3 13 19 48 786
1644	289600 102 61459530 65281159 3350.009923038748 3470.009923038748 3 1 6 10 46
vector 1740 World.node[915].appl.middleware.ExampleService proof_size ETV
vector 1741 World.node[915].appl.middleware.ExampleService proof_requested ETV
vector 1742 World.node[918].appl.middleware.ExampleService proof_size ETV
vector 1743 World.node[918].appl.middleware.ExampleService proof_requested ETV
1629	290008 140 60424470 66140306 3317.006487643416 3497.006487643416 4 14 26 75 1497
1628	290148 136 60424470 66140306 3317.006487643416 3497.006487643416 4 0 5 8 30
1591	290284 170 58430987 65677444 3241.08981386146 3481.08981386146 5 18 30 106 2350
1590	290454 165 58430987 65677444 3241.08981386146 3481.08981386146 5 1 6 17 71
1735	290619 34 66124820 66124820 3496.085622913018 3496.085622913018 1 6 6 6 36
1734	290653 34 66124820 66124820 3496.085622913018 3496.085622913018 1 2 2 2 4
vector 1744 World.node[914].appl.middleware.ExampleService proof_size ETV
vector 1745 World.node[914].appl.middleware.ExampleService proof_requested ETV
1461	290840 348 52998209 66612749 2979.016465437296 3519.016465437296 10 1 26 161 3161
1460	291188 341 52998209 66612749 2979.016465437296 3519.016465437296 10 0 14 55 477
vector 1746 World.node[917].appl.middleware.ExampleService proof_size ETV
vector 1747 World.node[917].appl.middleware.ExampleService proof_requested ETV
1545	291682 243 56835650 66612002 3159.005565686175 3519.005565686175 7 3 35 113 2503
1544	291925 238 56835650 66612002 3159.005565686175 3519.005565686175 7 0 7 15 63
1647	292163 103 61462805 65283708 3350.042140207835 3470.042140207835 3 6 17 32 406
1646	292266 102 61462805 65283708 3350.042140207835 3470.042140207835 3 2 3 7 17
1683	292368 69 63831681 65739786 3423.048062510602 3483.048062510602 2 6 25 31 661
1682	292437 68 63831681 65739786 3423.048062510602 3483.048062510602 2 1 5 6 26
1571	292505 210 57816433 66468190 3213.045652819681 3513.045652819681 6 11 21 82 1190
1570	292715 204 57816433 66468190 3213.045652819681 3513.045652819681 6 1 7 28 156
vector 1748 World.node[922].appl.middleware.ExampleService proof_size ETV
vector 1749 World.node[922].appl.middleware.ExampleService proof_requested ETV
1661	293072 104 62211186 66123865 3376.065817410429 3496.065817410429 3 6 14 33 401
1660	293176 102 62211186 66123865 3376.065817410429 3496.065817410429 3 0 4 4 16
vector 1750 World.node[919].appl.middleware.ExampleService proof_size ETV
vector 1751 World.node[919].appl.middleware.ExampleService proof_requested ETV
vector 1752 World.node[920].appl.middleware.ExampleService proof_size ETV
vector 1753 World.node[920].appl.middleware.ExampleService proof_requested ETV
vector 1754 World.node[916].appl.middleware.ExampleService proof_size ETV
vector 1755 World.node[916].appl.middleware.ExampleService proof_requested ETV
1737	293737 35 66205551 66205551 3500.073645716836 3500.073645716836 1 14 14 14 196
1736	293772 34 66205551 66205551 3500.073645716836 3500.073645716836 1 4 4 4 16
vector 1756 World.node[930].appl.middleware.ExampleService proof_size ETV
vector 1757 World.node[930].appl.middleware.ExampleService proof_requested ETV
vector 1758 World.node[924].appl.middleware.ExampleService proof_size ETV
vector 1759 World.node[924].appl.middleware.ExampleService proof_requested ETV
vector 1760 World.node[928].appl.middleware.ExampleService proof_size ETV
vector 1761 World.node[928].appl.middleware.ExampleService proof_requested ETV
vector 1762 World.node[931].appl.middleware.ExampleService proof_size ETV
vector 1763 World.node[931].appl.middleware.ExampleService proof_requested ETV
1719	294418 69 65649999 67032498 3480.219017639179 3540.133756271778 2 4 13 17 185
1718	294487 69 65649999 67032498 3480.219017639179 3540.133756271778 2 4 13 17 185
1673	294556 104 62774505 66442733 3392.009224803094 3512.009224803094 3 7 12 31 337
1672	294660 102 62774505 66442733 3392.009224803094 3512.009224803094 3 2 5 10 38
1701	294762 105 64336595 67397421 3437.064675312908 3557.064675312908 3 15 18 50 838
1700	294867 103 64336595 67397421 3437.064675312908 3557.064675312908 3 0 12 14 148
vector 1764 World.node[921].appl.middleware.ExampleService proof_size ETV
vector 1765 World.node[921].appl.middleware.ExampleService proof_requested ETV
1695	295123 103 64302598 67380368 3436.097210636688 3556.097210636688 3 2 15 26 310
1694	295226 102 64302598 67380368 3436.097210636688 3556.097210636688 3 0 4 5 17
1687	295328 105 63868325 67109185 3424.045015872479 3544.045015872479 3 12 22 54 1028
1686	295433 102 63868325 67109185 3424.045015872479 3544.045015872479 3 2 6 12 56
1705	295535 99 64363816 67418979 3438.00626611663 3558.00626611663 3 5 8 20 138
1704	295634 99 64363816 67418979 3438.00626611663 3558.00626611663 3 0 2 3 5
vector 1766 World.node[925].appl.middleware.ExampleService proof_size ETV
vector 1767 World.node[925].appl.middleware.ExampleService proof_requested ETV
1589	295886 209 58368263 66989606 3238.055989604909 3538.055989604909 6 7 22 103 1913
1588	296095 205 58368263 66989606 3238.055989604909 3538.055989604909 6 0 13 21 191
1659	296300 139 62176301 67349971 3375.013202034449 3555.013202034449 4 3 23 59 1095
1658	296439 136 62176301 67349971 3375.013202034449 3555.013202034449 4 1 7 13 67
1739	296575 69 66324565 67546871 3506.038908460294 3563.164463682876 2 3 12 15 153
1738	296644 68 66324565 67546871 3506.038908460294 3563.164463682876 2 2 3 5 13
1667	296712 139 62565461 67547449 3386.044345813431 3563.176107353627 4 3 20 52 842
1666	296851 136 62565461 67547449 3386.044345813431 3563.176107353627 4 0 8 16 98
vector 1768 World.node[923].appl.middleware.ExampleService proof_size ETV
vector 1769 World.node[923].appl.middleware.ExampleService proof_requested ETV
vector 1770 World.node[937].appl.middleware.ExampleService proof_size ETV
vector 1771 World.node[937].appl.middleware.ExampleService proof_requested ETV
vector 1772 World.node[926].appl.middleware.ExampleService proof_size ETV
vector 1773 World.node[926].appl.middleware.ExampleService proof_requested ETV
vector 1774 World.node[936].appl.middleware.ExampleService proof_size ETV
vector 1775 World.node[936].appl.middleware.ExampleService proof_requested ETV
vector 1776 World.node[933].appl.middleware.ExampleService proof_size ETV
vector 1777 World.node[933].appl.middleware.ExampleService proof_requested ETV
1567	297752 244 57352037 67189749 3188.055024302308 3548.055024302308 7 6 33 135 3003
1566	297996 239 57352037 67189749 3188.055024302308 3548.055024302308 7 3 11 44 316
1747	298235 34 66739505 66739505 3525.075022632806 3525.075022632806 1 1 1 1 1
1746	298269 34 66739505 66739505 3525.075022632806 3525.075022632806 1 1 1 1 1
vector 1778 World.node[927].appl.middleware.ExampleService proof_size ETV
vector 1779 World.node[927].appl.middleware.ExampleService proof_requested ETV
vector 1780 World.node[934].appl.middleware.ExampleService proof_size ETV
vector 1781 World.node[934].appl.middleware.ExampleService proof_requested ETV
1733	298609 68 66075604 67325690 3494.075982042053 3554.075982042053 2 9 9 18 162
1732	298677 68 66075604 67325690 3494.075982042053 3554.075982042053 2 1 3 4 10
vector 1782 World.node[935].appl.middleware.ExampleService proof_size ETV
vector 1783 World.node[935].appl.middleware.ExampleService proof_requested ETV
1569	298898 243 57651950 67595859 3205.063395255269 3565.063395255269 7 3 21 101 1767
1568	299141 238 57651950 67595859 3205.063395255269 3565.063395255269 7 2 9 30 192
vector 1784 World.node[932].appl.middleware.ExampleService proof_size ETV
vector 1785 World.node[932].appl.middleware.ExampleService proof_requested ETV
vector 1786 World.node[940].appl.middleware.ExampleService proof_size ETV
vector 1787 World.node[940].appl.middleware.ExampleService proof_requested ETV
vector 1788 World.node[942].appl.middleware.ExampleService proof_size ETV
vector 1789 World.node[942].appl.middleware.ExampleService proof_requested ETV
1715	299838 103 65414780 68189768 3474.006554511213 3594.006554511213 3 6 10 25 217
1714	299941 102 65414780 68189768 3474.006554511213 3594.006554511213 3 2 8 13 77
vector 1790 World.node[938].appl.middleware.ExampleService proof_size ETV
vector 1791 World.node[938].appl.middleware.ExampleService proof_requested ETV
1699	300196 105 64336426 67397136 3437.058742667735 3557.058742667735 3 11 15 39 515
1698	300301 102 64336426 67397136 3437.058742667735 3557.058742667735 3 3 8 15 89
1731	300403 102 65869961 68466988 3487.004049426108 3607.004049426108 3 2 8 15 93
1730	300505 102 65869961 68466988 3487.004049426108 3607.004049426108 3 0 2 3 5
vector 1792 World.node[943].appl.middleware.ExampleService proof_size ETV
vector 1793 World.node[943].appl.middleware.ExampleService proof_requested ETV
1727	300760 104 65739788 68309994 3483.048710730253 3600.064156102396 3 2 12 26 292
1726	300864 102 65739788 68309994 3483.048710730253 3600.064156102396 3 2 5 10 38
1773	300966 35 68002112 68002112 3584.093967151572 3584.093967151572 1 17 17 17 289
1772	301001 34 68002112 68002112 3584.093967151572 3584.093967151572 1 4 4 4 16
1637	301035 174 60724929 67639123 3327.031179681327 3567.031179681327 5 9 28 79 1471
1636	301209 171 60724929 67639123 3327.031179681327 3567.031179681327 5 2 11 21 147
1767	301380 35 67734185 67734185 3571.088342270022 3571.088342270022 1 10 10 10 100
1766	301415 34 67734185 67734185 3571.088342270022 3571.088342270022 1 4 4 4 16
vector 1794 World.node[939].appl.middleware.ExampleService proof_size ETV
vector 1795 World.node[939].appl.middleware.ExampleService proof_requested ETV
1575	301602 245 57965211 67899149 3219.034947936656 3579.034947936656 7 13 28 141 3021
1574	301847 239 57965211 67899149 3219.034947936656 3579.034947936656 7 2 10 38 242
1775	302086 34 68019654 68019654 3585.061256454489 3585.061256454489 1 4 4 4 16
1774	302120 34 68019654 68019654 3585.061256454489 3585.061256454489 1 0 0 0 0
1711	302154 138 64708524 68885649 3450.030534575484 3630.030534575484 4 4 17 44 582
1710	302292 136 64708524 68885649 3450.030534575484 3630.030534575484 4 1 4 11 37
vector 1796 World.node[941].appl.middleware.ExampleService proof_size ETV
vector 1797 World.node[941].appl.middleware.ExampleService proof_requested ETV
1741	302581 70 66492392 67794382 3514.019341573771 3574.019341573771 2 11 12 23 265
1740	302651 68 66492392 67794382 3514.019341573771 3574.019341573771 2 3 4 7 25
1753	302719 70 67027150 68308840 3540.026641097269 3600.026641097269 2 15 23 38 754
1752	302789 68 67027150 68308840 3540.026641097269 3600.026641097269 2 1 5 6 26
1769	302857 68 67900917 68965881 3579.071541959001 3636.153806907188 2 1 8 9 65
1768	302925 68 67900917 68965881 3579.071541959001 3636.153806907188 2 1 2 3 5
1777	302993 63 68021392 69073458 3585.099212372 3645.099212372 2 5 16 21 281
1776	303056 62 68021392 69073458 3585.099212372 3645.099212372 2 2 7 9 53
1721	303118 131 65676434 69256739 3481.0694036284 3661.0694036284 4 7 22 50 754
1720	303249 128 65676434 69256739 3481.0694036284 3661.0694036284 4 2 9 18 110
1615	303377 243 59515407 69060885 3284.028070214344 3644.028070214344 7 5 29 122 2580
1614	303620 238 59515407 69060885 3284.028070214344 3644.028070214344 7 1 6 23 91
1725	303858 140 65708152 69267743 3482.068124469439 3662.068124469439 4 12 29 81 1785
1724	303998 136 65708152 69267743 3482.068124469439 3662.068124469439 4 1 7 14 68
1759	304134 102 67494476 69467523 3561.008820657106 3681.008820657106 3 3 9 19 139
1758	304236 102 67494476 69467523 3561.008820657106 3681.008820657106 3 2 4 8 24
1757	304338 104 67376620 69425366 3556.035139444401 3676.035139444401 3 3 12 27 297
1756	304442 102 67376620 69425366 3556.035139444401 3676.035139444401 3 0 4 7 25
1703	304544 173 64338600 69434321 3437.089017756842 3677.089017756842 5 6 18 63 923
1702	304717 170 64338600 69434321 3437.089017756842 3677.089017756842 5 1 4 15 51
1779	304887 69 68076456 69073757 3588.058207950438 3645.114509658096 2 1 12 13 145
1778	304956 68 68076456 69073757 3588.058207950438 3645.114509658096 2 1 5 6 26
1791	305024 68 68598253 69394777 3613.052125272807 3673.052125272807 2 6 8 14 100
1790	305092 68 68598253 69394777 3613.052125272807 3673.052125272807 2 3 3 6 18
1785	305160 69 68311059 69245395 3600.087116358057 3660.087116358057 2 5 18 23 349
1784	305229 68 68311059 69245395 3600.087116358057 3660.087116358057 2 2 6 8 40
1789	305297 68 68406141 69331834 3604.129512080085 3667.071452671336 2 2 9 11 85
1788	305365 68 68406141 69331834 3604.129512080085 3667.071452671336 2 2 3 5 13
1763	305433 104 67544563 69482602 3563.093700040551 3683.093700040551 3 4 17 32 426
1762	305537 102 67544563 69482602 3563.093700040551 3683.093700040551 3 1 4 8 26
1729	305639 140 65800045 69306115 3485.017784577841 3665.017784577841 4 15 25 79 1611
1728	305779 136 65800045 69306115 3485.017784577841 3665.017784577841 4 0 6 13 61
1717	305915 138 65421311 69171248 3474.078696486051 3654.078696486051 4 3 14 34 354
1716	306053 136 65421311 69171248 3474.078696486051 3654.078696486051 4 0 5 10 38
1793	306189 70 68634168 69415633 3615.033995559416 3675.033995559416 2 12 16 28 400
1792	306259 68 68634168 69415633 3615.033995559416 3675.033995559416 2 1 4 5 17
1783	306327 104 68208244 69666770 3595.043322246755 3715.043322246755 3 9 20 41 625
1782	306431 102 68208244 69666770 3595.043322246755 3715.043322246755 3 0 3 3 9
1743	306533 137 66496959 69534588 3514.092847275408 3691.147231825742 4 3 15 28 284
1742	306670 136 66496959 69534588 3514.092847275408 3691.147231825742 4 2 6 14 58
1693	306806 210 64297957 69728204 3436.051699526375 3736.051699526375 6 11 23 108 2048
1692	307016 204 64297957 69728204 3436.051699526375 3736.051699526375 6 0 8 23 129
1765	307220 138 67663601 69766041 3568.073745182762 3748.073745182762 4 3 12 36 378
1764	307358 136 67663601 69766041 3568.073745182762 3748.073745182762 4 0 4 8 24
1755	307494 104 67069025 69269801 3542.090081110853 3662.090081110853 3 6 17 33 425
1754	307598 102 67069025 69269801 3542.090081110853 3662.090081110853 3 2 7 12 62
1787	307700 69 68356868 69308218 3602.143017982972 3665.082654542942 2 1 17 18 290
1786	307769 68 68356868 69308218 3602.143017982972 3665.082654542942 2 1 5 6 26
1795	307837 103 68826964 69749070 3626.054395909677 3743.152954641127 3 1 10 20 182
1794	307940 102 68826964 69749070 3626.054395909677 3743.152954641127 3 1 3 6 14
1675	308042 209 63287951 69626216 3406.072934070835 3706.072934070835 6 6 17 74 984
1674	308251 204 63287951 69626216 3406.072934070835 3706.072934070835 6 2 6 20 82
1713	308455 209 65254482 69831094 3469.022115665278 3769.022115665278 6 6 19 80 1172
1712	308664 204 65254482 69831094 3469.022115665278 3769.022115665278 6 0 4 13 43
1723	308868 207 65677303 69851607 3481.080544568924 3781.080544568924 6 6 22 77 1247
1722	309075 204 65677303 69851607 3481.080544568924 3781.080544568924 6 0 9 25 165
1771	309279 102 67999750 69614690 3584.037847829121 3704.037847829121 3 2 9 19 149
1770	309381 102 67999750 69614690 3584.037847829121 3704.037847829121 3 0 3 4 10
1707	309483 209 64395297 69872258 3439.014637307357 3796.097963504632 6 1 24 88 1596
1706	309692 204 64395297 69872258 3439.014637307357 3796.097963504632 6 1 6 16 60
1761	309896 172 67523551 69878035 3562.084379299008 3802.084379299008 5 4 18 49 585
1760	310068 170 67523551 69878035 3562.084379299008 3802.084379299008 5 0 5 6 26
1781	310238 172 68111531 69896938 3590.066931851557 3830.066931851557 5 2 22 51 803
1780	310410 170 68111531 69896938 3590.066931851557 3830.066931851557 5 0 1 4 4
1689	310580 242 63904461 69909334 3425.004323179717 3845.004323179717 7 2 28 98 1972
1688	310822 238 63904461 69909334 3425.004323179717 3845.004323179717 7 0 4 9 27
1745	311060 207 66655890 69888726 3521.074639088963 3818.074998785787 6 1 17 57 757
1744	311267 204 66655890 69888726 3521.074639088963 3818.074998785787 6 1 4 16 54
1751	311471 207 66949243 69898910 3536.008056794968 3833.008426649636 6 1 25 62 1012
1750	311678 204 66949243 69898910 3536.008056794968 3833.008426649636 6 1 5 15 57
1749	311882 207 66882426 69898285 3532.079451744119 3832.079451744119 6 4 15 54 590
1748	312089 204 66882426 69898285 3532.079451744119 3832.079451744119 6 0 3 7 19
1797	312293 172 68926740 69926169 3633.071883362159 3873.071883362159 5 2 17 38 434
1796	312465 170 68926740 69926169 3633.071883362159 3873.071883362159 5 0 2 4 6

